examples/test_perturbation_outputs/pert_min_cost/pglib_opf_case2853_sdet.m
%% MATPOWER Case Format : Version 2
function mpc = pglib_opf_case2853_sdet
mpc.version = '2';

%%-----  Power Flow Data  -----%%
%% system MVA base
mpc.baseMVA = 100.0;
%% bus data
%    bus_i    type    Pd    Qd    Gs    Bs    area    Vm    Va    baseKV    zone    Vmax    Vmin
mpc.bus = [
	1	1	0.1	-1.05	0.0	4.11	1	1.0	0.0	138.0	1	1.1	0.9				
	2	2	0.0	0.0	0.0	0.0	1	1.0	0.0	20.0	1	1.1	0.9				
	3	1	-7.61	2.37	0.0	0.0	1	1.0	0.0	138.0	1	1.1	0.9				
	4	1	0.1	-0.34	0.0	0.0	1	1.0	0.0	138.0	1	1.1	0.9				
	5	1	0.1	-0.19	0.0	0.0	1	1.0	0.0	138.0	1	1.1	0.9				
	6	2	0.0	0.0	0.0	0.0	1	1.0	0.0	20.0	1	1.1	0.9				
	7	1	-19.32	6.4	0.0	0.0	1	1.0	0.0	138.0	1	1.1	0.9				
	8	1	-41.65	13.4	0.0	0.0	1	1.0	0.0	138.0	1	1.1	0.9				
	9	1	0.1	-0.24	0.0	0.0	1	1.0	0.0	138.0	1	1.1	0.9				
	10	2	-6.7	-8.98	0.0	0.0	1	1.0	0.0	138.0	1	1.1	0.9				
	11	1	96.28	-2.53	0.0	0.0	1	1.0	0.0	138.0	1	1.1	0.9				
	12	1	-10.41	-7.41	0.0	38.43	1	1.0	0.0	138.0	1	1.1	0.9				
	13	1	0.1	0.08	0.0	0.0	1	1.0	0.0	138.0	1	1.1	0.9				
	14	1	0.1	-2.08	0.0	0.0	1	1.0	0.0	138.0	1	1.1	0.9				
	15	2	0.0	0.0	0.0	0.0	1	1.0	0.0	20.0	1	1.1	0.9				
	16	2	0.0	0.0	0.0	0.0	1	1.0	0.0	20.0	1	1.1	0.9				
	17	1	0.1	-1.53	0.0	28.749999999999996	1	1.0	0.0	138.0	1	1.1	0.9				
	18	1	119.09999999999998	59.5	0.0	21.06	1	1.0	0.0	138.0	1	1.1	0.9				
	19	1	32.84	13.07	0.0	5.26	1	1.0	0.0	138.0	1	1.1	0.9				
	20	1	-0.54	-5.8	0.0	0.0	1	1.0	0.0	138.0	1	1.1	0.9				
	21	1	-10.71	2.92	0.0	0.0	1	1.0	0.0	138.0	1	1.1	0.9				
	22	1	0.1	-4.36	0.0	0.0	1	1.0	0.0	138.0	1	1.1	0.9				
	23	1	0.1	-2.42	0.0	0.0	1	1.0	0.0	138.0	1	1.1	0.9				
	24	2	0.0	0.0	0.0	0.0	1	1.0	0.0	20.0	1	1.1	0.9				
	25	1	0.1	-1.09	0.0	1.7399999999999998	1	1.0	0.0	138.0	1	1.1	0.9				
	26	2	0.0	0.0	0.0	0.0	1	1.0	0.0	20.0	1	1.1	0.9				
	27	2	0.0	0.0	0.0	0.0	1	1.0	0.0	20.0	1	1.1	0.9				
	28	1	0.1	-0.38	0.0	0.0	1	1.0	0.0	138.0	1	1.1	0.9				
	29	1	160.2	89.9	0.0	0.0	1	1.0	0.0	138.0	1	1.1	0.9				
	30	1	160.2	88.7	0.0	-5.21	1	1.0	0.0	138.0	1	1.1	0.9				
	31	1	18.45	9.5	0.0	0.0	1	1.0	0.0	138.0	1	1.1	0.9				
	32	1	-15.120000000000001	4.75	0.0	0.0	1	1.0	0.0	138.0	1	1.1	0.9				
	33	1	0.1	-1.32	0.0	1.08	1	1.0	0.0	138.0	1	1.1	0.9				
	34	2	0.0	0.0	0.0	0.0	1	1.0	0.0	20.0	1	1.1	0.9				
	35	1	0.1	-3.06	0.0	0.0	1	1.0	0.0	138.0	1	1.1	0.9				
	36	1	0.1	-1.77	0.0	0.0	1	1.0	0.0	138.0	1	1.1	0.9				
	37	1	0.1	-0.36	0.0	0.0	1	1.0	0.0	138.0	1	1.1	0.9				
	38	1	0.0	0.0	0.0	0.0	1	1.0	0.0	138.0	1	1.1	0.9				
	39	1	0.1	-0.35	0.0	0.0	1	1.0	0.0	138.0	1	1.1	0.9				
	40	1	0.12	0.12	0.0	0.0	1	1.0	0.0	138.0	1	1.1	0.9				
	41	1	0.1	-1.35	0.0	0.0	1	1.0	0.0	138.0	1	1.1	0.9				
	42	1	-20.12	5.75	0.0	0.0	1	1.0	0.0	138.0	1	1.1	0.9				
	43	1	0.1	-3.7900000000000005	0.0	0.58	1	1.0	0.0	138.0	1	1.1	0.9				
	44	2	0.0	0.0	0.0	0.0	1	1.0	0.0	20.0	1	1.1	0.9				
	45	2	0.0	0.0	0.0	0.0	1	1.0	0.0	20.0	1	1.1	0.9				
	46	1	0.0	0.0	0.0	0.0	1	1.0	0.0	138.0	1	1.1	0.9				
	47	1	0.0	0.0	0.0	0.0	2	1.0	0.0	138.0	2	1.1	0.9				
	48	1	27.05	-16.5	0.0	0.0	2	1.0	0.0	500.0	2	1.1	0.9				
	49	1	7.71	13.11	0.0	4.18	2	1.0	0.0	138.0	2	1.1	0.9				
	50	1	0.0	0.0	0.0	0.02	2	1.0	0.0	138.0	2	1.1	0.9				
	51	1	0.1	-0.4	0.0	0.0	2	1.0	0.0	138.0	2	1.1	0.9				
	52	1	0.0	0.0	0.0	0.0	2	1.0	0.0	138.0	2	1.1	0.9				
	53	1	14.800000000000002	-77.73	0.0	44.53	2	1.0	0.0	500.0	2	1.1	0.9				
	54	1	-15.8	-10.4	0.0	0.0	2	1.0	0.0	138.0	2	1.1	0.9				
	55	1	-15.920000000000002	4.9	0.0	0.0	2	1.0	0.0	138.0	2	1.1	0.9				
	56	1	69.38	39.78	0.0	19.14	2	1.0	0.0	138.0	2	1.1	0.9				
	57	1	27.05	7.960000000000001	0.0	0.0	2	1.0	0.0	138.0	2	1.1	0.9				
	58	1	0.0	0.0	0.0	0.0	2	1.0	0.0	138.0	2	1.1	0.9				
	59	1	24.13	11.14	0.0	0.0	2	1.0	0.0	138.0	2	1.1	0.9				
	60	1	0.1	-0.5	0.0	0.0	2	1.0	0.0	138.0	2	1.1	0.9				
	61	1	0.1	-1.78	0.0	6.93	2	1.0	0.0	138.0	2	1.1	0.9				
	62	1	0.0	0.0	0.0	0.0	2	1.0	0.0	138.0	2	1.1	0.9				
	63	1	0.1	-0.74	0.0	0.0	2	1.0	0.0	138.0	2	1.1	0.9				
	64	2	413.0	-361.88	0.0	0.0	2	1.0	0.0	500.0	2	1.1	0.9				
	65	2	0.0	0.0	0.0	0.0	2	1.0	0.0	20.0	2	1.1	0.9				
	66	1	0.1	-0.01	0.0	0.0	2	1.0	0.0	138.0	2	1.1	0.9				
	67	1	5.77	0.96	0.0	0.0	2	1.0	0.0	138.0	2	1.1	0.9				
	68	1	0.1	-4.87	0.0	0.0	2	1.0	0.0	138.0	2	1.1	0.9				
	69	1	0.1	-0.74	0.0	-19.16	2	1.0	0.0	138.0	2	1.1	0.9				
	70	1	0.0	0.0	0.0	0.02	2	1.0	0.0	138.0	2	1.1	0.9				
	71	1	0.1	-5.45	0.0	0.0	2	1.0	0.0	138.0	2	1.1	0.9				
	72	1	2.2	-3.95	0.0	0.0	2	1.0	0.0	138.0	2	1.1	0.9				
	73	1	18.52	7.090000000000001	0.0	8.15	2	1.0	0.0	138.0	2	1.1	0.9				
	74	1	0.0	0.0	0.0	0.0	2	1.0	0.0	138.0	2	1.1	0.9				
	75	1	29.03	17.98	0.0	3.66	2	1.0	0.0	138.0	2	1.1	0.9				
	76	1	0.1	-1.43	0.0	0.0	2	1.0	0.0	138.0	2	1.1	0.9				
	77	1	0.1	-0.8699999999999999	0.0	2.04	2	1.0	0.0	138.0	2	1.1	0.9				
	78	1	8.71	4.56	0.0	4.24	2	1.0	0.0	138.0	2	1.1	0.9				
	79	1	-0.57	-3.27	0.0	0.0	2	1.0	0.0	138.0	2	1.1	0.9				
	80	1	0.1	-0.22999999999999998	0.0	0.0	2	1.0	0.0	138.0	2	1.1	0.9				
	81	1	35.94	20.67	0.0	9.96	2	1.0	0.0	138.0	2	1.1	0.9				
	82	2	0.0	0.0	0.0	0.0	2	1.0	0.0	20.0	2	1.1	0.9				
	83	1	0.1	-2.37	0.0	0.0	2	1.0	0.0	138.0	2	1.1	0.9				
	84	1	0.0	0.0	0.0	0.0	2	1.0	0.0	138.0	2	1.1	0.9				
	85	1	0.1	-0.73	0.0	0.0	2	1.0	0.0	138.0	2	1.1	0.9				
	86	1	54.98	-9.33	0.0	10.65	2	1.0	0.0	138.0	2	1.1	0.9				
	87	1	0.1	-0.15	0.0	0.0	2	1.0	0.0	138.0	2	1.1	0.9				
	88	1	0.1	-1.55	0.0	0.0	2	1.0	0.0	138.0	2	1.1	0.9				
	89	2	0.0	0.0	0.0	-8.48	2	1.0	0.0	500.0	2	1.1	0.9				
	90	1	13.720000000000002	8.44	0.0	0.0	2	1.0	0.0	138.0	2	1.1	0.9				
	91	1	39.53	-28.65	0.0	0.0	2	1.0	0.0	138.0	2	1.1	0.9				
	92	1	-0.57	-1.0	0.0	0.0	2	1.0	0.0	138.0	2	1.1	0.9				
	93	1	-0.57	-4.29	0.0	0.0	2	1.0	0.0	138.0	2	1.1	0.9				
	94	1	0.1	-1.77	0.0	0.0	2	1.0	0.0	138.0	2	1.1	0.9				
	95	1	11.5	4.37	0.0	0.0	2	1.0	0.0	138.0	2	1.1	0.9				
	96	2	0.0	0.0	0.0	0.0	2	1.0	0.0	20.0	2	1.1	0.9				
	97	1	-6.11	1.53	0.0	0.0	3	1.0	0.0	138.0	3	1.1	0.9				
	98	1	0.1	-19.54	0.0	0.0	3	1.0	0.0	138.0	3	1.1	0.9				
	99	1	0.1	-26.52	0.0	0.0	3	1.0	0.0	138.0	3	1.1	0.9				
	100	1	0.1	-29.89	0.0	0.0	3	1.0	0.0	138.0	3	1.1	0.9				
	101	1	0.1	-22.93	0.0	0.0	3	1.0	0.0	138.0	3	1.1	0.9				
	102	1	-8.41	1.87	0.0	0.0	3	1.0	0.0	138.0	3	1.1	0.9				
	103	1	0.1	-15.6	0.0	0.0	3	1.0	0.0	138.0	3	1.1	0.9				
	104	1	-19.62	26.91	0.0	0.0	3	1.0	0.0	138.0	3	1.1	0.9				
	105	1	-41.25	13.019999999999998	0.0	16.09	3	1.0	0.0	138.0	3	1.1	0.9				
	106	1	0.1	-29.89	0.0	0.0	3	1.0	0.0	138.0	3	1.1	0.9				
	107	1	33.36	20.0	0.0	0.0	3	1.0	0.0	138.0	3	1.1	0.9				
	108	2	0.0	0.0	0.0	0.0	3	1.0	0.0	138.0	3	1.1	0.9				
	109	1	0.1	7.829999999999999	0.0	0.0	3	1.0	0.0	138.0	3	1.1	0.9				
	110	1	0.1	-1.8900000000000001	0.0	0.0	3	1.0	0.0	138.0	3	1.1	0.9				
	111	1	13.77	18.27	0.0	0.0	3	1.0	0.0	138.0	3	1.1	0.9				
	112	1	34.14	21.1	0.0	0.0	3	1.0	0.0	138.0	3	1.1	0.9				
	113	1	0.1	-10.07	0.0	0.0	3	1.0	0.0	138.0	3	1.1	0.9				
	114	1	0.0	0.0	0.0	0.0	3	1.0	0.0	138.0	3	1.1	0.9				
	115	1	-13.320000000000002	19.44	0.0	0.0	3	1.0	0.0	138.0	3	1.1	0.9				
	116	1	0.1	0.0	0.0	0.0	3	1.0	0.0	138.0	3	1.1	0.9				
	117	2	0.0	0.0	0.0	0.0	3	1.0	0.0	138.0	3	1.1	0.9				
	118	1	0.1	-19.08	0.0	0.0	3	1.0	0.0	138.0	3	1.1	0.9				
	119	1	0.0	0.0	0.0	0.0	3	1.0	0.0	138.0	3	1.1	0.9				
	120	1	37.6	21.67	0.0	0.0	3	1.0	0.0	138.0	3	1.1	0.9				
	121	1	27.860000000000003	14.21	0.0	0.0	3	1.0	0.0	138.0	3	1.1	0.9				
	122	1	13.720000000000002	-10.96	0.0	0.0	3	1.0	0.0	138.0	3	1.1	0.9				
	123	1	0.1	-1.8900000000000001	0.0	0.0	3	1.0	0.0	138.0	3	1.1	0.9				
	124	1	0.1	-4.32	0.0	0.0	3	1.0	0.0	138.0	3	1.1	0.9				
	125	1	-0.67	-3.25	0.0	0.0	3	1.0	0.0	138.0	3	1.1	0.9				
	126	2	0.1	-19.08	0.0	0.0	3	1.0	0.0	138.0	3	1.1	0.9				
	127	1	0.0	0.0	0.0	0.0	4	1.0	0.0	20.0	4	1.1	0.9				
	128	1	210.5	27.62	0.0	-49.77	4	1.0	0.0	500.0	4	1.1	0.9				
	129	2	0.0	0.0	0.0	0.0	4	1.0	0.0	20.0	4	1.1	0.9				
	130	2	0.0	0.0	0.0	0.0	4	1.0	0.0	20.0	4	1.1	0.9				
	131	2	0.0	0.0	0.0	0.0	4	1.0	0.0	20.0	4	1.1	0.9				
	132	2	0.0	0.0	0.0	0.0	4	1.0	0.0	20.0	4	1.1	0.9				
	133	2	0.0	0.0	0.0	0.0	4	1.0	0.0	20.0	4	1.1	0.9				
	134	2	0.0	0.0	0.0	0.0	4	1.0	0.0	20.0	4	1.1	0.9				
	135	1	229.05	127.86999999999999	0.0	0.0	4	1.0	0.0	500.0	4	1.1	0.9				
	136	2	0.0	0.0	0.0	0.0	4	1.0	0.0	20.0	4	1.1	0.9				
	137	1	17.32	-9.92	0.0	0.0	4	1.0	0.0	500.0	4	1.1	0.9				
	138	1	1.38	40.91	0.0	0.0	4	1.0	0.0	500.0	4	1.1	0.9				
	139	1	36.54	1.82	0.0	0.0	4	1.0	0.0	345.0	4	1.1	0.9				
	140	1	287.7	3.44	0.0	0.0	4	1.0	0.0	500.0	4	1.1	0.9				
	141	1	90.7	1.7000000000000002	0.0	0.0	4	1.0	0.0	345.0	4	1.1	0.9				
	142	2	0.0	0.0	0.0	0.0	4	1.0	0.0	500.0	4	1.1	0.9				
	143	2	303.04	131.03	0.0	0.0	4	1.0	0.0	500.0	4	1.1	0.9				
	144	1	300.2	-33.04	0.0	0.0	4	1.0	0.0	500.0	4	1.1	0.9				
	145	1	207.95	-48.04	0.0	0.0	4	1.0	0.0	500.0	4	1.1	0.9				
	146	1	34.44	-34.16	0.0	16.08	4	1.0	0.0	500.0	4	1.1	0.9				
	147	1	25.540000000000003	-11.15	0.0	0.0	4	1.0	0.0	345.0	4	1.1	0.9				
	148	1	0.0	0.0	0.0	0.0	4	1.0	0.0	20.0	4	1.1	0.9				
	149	1	30.930000000000003	0.69	0.0	5.66	4	1.0	0.0	345.0	4	1.1	0.9				
	150	1	14.32	-83.22	0.0	-23.72	4	1.0	0.0	500.0	4	1.1	0.9				
	151	2	189.4	22.18	0.0	0.0	4	1.0	0.0	345.0	4	1.1	0.9				
	152	1	1.72	56.779999999999994	0.0	0.0	4	1.0	0.0	500.0	4	1.1	0.9				
	153	2	0.0	0.0	0.0	0.0	4	1.0	0.0	20.0	4	1.1	0.9				
	154	1	104.60000000000001	39.28	0.0	0.0	4	1.0	0.0	345.0	4	1.1	0.9				
	155	1	493.40000000000003	-4.59	0.0	0.0	4	1.0	0.0	500.0	4	1.1	0.9				
	156	1	69.78	13.96	0.0	0.0	4	1.0	0.0	345.0	4	1.1	0.9				
	157	2	0.0	0.0	0.0	0.0	4	1.0	0.0	20.0	4	1.1	0.9				
	158	1	633.63	11.09	0.0	0.0	4	1.0	0.0	345.0	4	1.1	0.9				
	159	1	0.0	0.0	0.0	0.0	4	1.0	0.0	20.0	4	1.1	0.9				
	160	1	694.34	45.83	0.0	0.0	4	1.0	0.0	345.0	4	1.1	0.9				
	161	1	0.0	0.0	0.0	0.0	4	1.0	0.0	20.0	4	1.1	0.9				
	162	1	0.0	0.0	0.0	0.0	4	1.0	0.0	20.0	4	1.1	0.9				
	163	2	0.0	0.0	0.0	0.0	4	1.0	0.0	20.0	4	1.1	0.9				
	164	1	0.0	0.0	0.0	0.0	4	1.0	0.0	20.0	4	1.1	0.9				
	165	2	0.0	0.0	0.0	0.0	4	1.0	0.0	20.0	4	1.1	0.9				
	166	2	0.0	0.0	0.0	0.0	4	1.0	0.0	20.0	4	1.1	0.9				
	167	2	0.0	0.0	0.0	0.0	4	1.0	0.0	20.0	4	1.1	0.9				
	168	2	0.0	0.0	0.0	0.0	4	1.0	0.0	20.0	4	1.1	0.9				
	169	2	0.0	0.0	0.0	0.0	4	1.0	0.0	20.0	4	1.1	0.9				
	170	1	-24.49	95.16	0.0	11.38	4	1.0	0.0	500.0	4	1.1	0.9				
	171	1	179.74	-1.6500000000000001	0.0	0.0	4	1.0	0.0	345.0	4	1.1	0.9				
	172	1	80.59	-11.62	0.0	0.0	4	1.0	0.0	345.0	4	1.1	0.9				
	173	1	366.6	-3.38	0.0	0.0	4	1.0	0.0	500.0	4	1.1	0.9				
	174	1	72.28	5.18	0.0	0.0	4	1.0	0.0	345.0	4	1.1	0.9				
	175	1	31.59	-20.02	0.0	0.0	4	1.0	0.0	500.0	4	1.1	0.9				
	176	2	0.0	0.0	0.0	0.0	4	1.0	0.0	20.0	4	1.1	0.9				
	177	1	449.54	10.66	0.0	0.0	4	1.0	0.0	345.0	4	1.1	0.9				
	178	1	19.12	-14.57	0.0	0.0	4	1.0	0.0	500.0	4	1.1	0.9				
	179	2	0.0	0.0	0.0	0.0	4	1.0	0.0	20.0	4	1.1	0.9				
	180	2	0.0	0.0	0.0	0.0	4	1.0	0.0	20.0	4	1.1	0.9				
	181	1	24.33	-74.57	0.0	0.0	4	1.0	0.0	500.0	4	1.1	0.9				
	182	2	0.0	0.0	0.0	0.0	4	1.0	0.0	20.0	4	1.1	0.9				
	183	1	0.0	0.0	0.0	0.0	4	1.0	0.0	20.0	4	1.1	0.9				
	184	1	0.0	0.0	0.0	0.0	4	1.0	0.0	20.0	4	1.1	0.9				
	185	2	0.0	0.0	0.0	0.0	4	1.0	0.0	20.0	4	1.1	0.9				
	186	1	67.47	4.64	0.0	0.0	4	1.0	0.0	345.0	4	1.1	0.9				
	187	2	0.0	0.0	0.0	0.0	4	1.0	0.0	20.0	4	1.1	0.9				
	188	2	0.0	0.0	0.0	0.0	4	1.0	0.0	20.0	4	1.1	0.9				
	189	2	0.0	0.0	0.0	0.0	4	1.0	0.0	20.0	4	1.1	0.9				
	190	1	0.0	0.0	0.0	0.0	4	1.0	0.0	20.0	4	1.1	0.9				
	191	1	0.0	0.0	0.0	0.0	4	1.0	0.0	20.0	4	1.1	0.9				
	192	1	0.0	0.0	0.0	0.0	4	1.0	0.0	20.0	4	1.1	0.9				
	193	1	142.0	10.03	0.0	0.0	4	1.0	0.0	345.0	4	1.1	0.9				
	194	2	0.0	0.0	0.0	0.0	4	1.0	0.0	500.0	4	1.1	0.9				
	195	1	186.8	12.960000000000003	0.0	0.0	4	1.0	0.0	345.0	4	1.1	0.9				
	196	1	0.0	0.0	0.0	0.0	4	1.0	0.0	20.0	4	1.1	0.9				
	197	1	0.0	0.0	0.0	0.0	4	1.0	0.0	20.0	4	1.1	0.9				
	198	1	0.0	0.0	0.0	0.0	4	1.0	0.0	20.0	4	1.1	0.9				
	199	1	0.0	0.0	0.0	0.0	4	1.0	0.0	20.0	4	1.1	0.9				
	200	1	0.0	0.0	0.0	0.0	4	1.0	0.0	20.0	4	1.1	0.9				
...
];

%% generator data
%    bus    Pg    Qg    Qmax    Qmin    Vg    mBase    status    Pmax    Pmin    Pc1    Pc2    Qc1min    Qc1max    Qc2min    Qc2max    ramp_agc    ramp_10    ramp_30    ramp_q    apf
mpc.gen = [
	2	60.3	0.0	35.83	-35.83	1.0	100.0	1	100.0	20.6	0.0	0.0	0.0	0.0	0.0	0.0	0.0	0.0	0.0	0.0	100.0				
	6	61.43500000000001	0.0	35.79	-35.79	1.0	100.0	1	100.0	22.87	0.0	0.0	0.0	0.0	0.0	0.0	0.0	0.0	0.0	0.0	100.0				
	10	95.83	0.0	500.0	-500.0	1.0	100.0	1	115.09	76.57	0.0	0.0	0.0	0.0	0.0	0.0	0.0	0.0	0.0	0.0	115.087				
	12	0.0	0.0	33.33	-33.33	1.0	100.0	0	32.21	17.2	0.0	0.0	0.0	0.0	0.0	0.0	0.0	0.0	0.0	0.0	32.205				
	15	60.3	0.0	35.83	-35.83	1.0	100.0	1	100.0	20.6	0.0	0.0	0.0	0.0	0.0	0.0	0.0	0.0	0.0	0.0	100.0				
	16	61.43500000000001	0.0	35.79	-35.79	1.0	100.0	1	100.0	22.87	0.0	0.0	0.0	0.0	0.0	0.0	0.0	0.0	0.0	0.0	100.0				
	17	0.0	0.0	33.33	-33.33	1.0	100.0	0	46.49	31.489999999999995	0.0	0.0	0.0	0.0	0.0	0.0	0.0	0.0	0.0	0.0	46.487				
	24	61.43500000000001	0.0	35.79	-35.79	1.0	100.0	1	100.0	22.87	0.0	0.0	0.0	0.0	0.0	0.0	0.0	0.0	0.0	0.0	100.0				
	26	60.3	0.0	35.83	-35.83	1.0	100.0	1	100.0	20.6	0.0	0.0	0.0	0.0	0.0	0.0	0.0	0.0	0.0	0.0	100.0				
	27	61.43500000000001	0.0	35.79	-35.79	1.0	100.0	1	100.0	22.87	0.0	0.0	0.0	0.0	0.0	0.0	0.0	0.0	0.0	0.0	100.0				
	30	0.0	0.0	33.33	-33.33	1.0	100.0	0	31.22	16.21	0.0	0.0	0.0	0.0	0.0	0.0	0.0	0.0	0.0	0.0	31.215				
	34	61.43500000000001	0.0	35.79	-35.79	1.0	100.0	1	100.0	22.87	0.0	0.0	0.0	0.0	0.0	0.0	0.0	0.0	0.0	0.0	100.0				
	44	61.43500000000001	0.0	35.79	-35.79	1.0	100.0	1	100.0	22.87	0.0	0.0	0.0	0.0	0.0	0.0	0.0	0.0	0.0	0.0	100.0				
	45	60.3	0.0	35.83	-35.83	1.0	100.0	1	100.0	20.6	0.0	0.0	0.0	0.0	0.0	0.0	0.0	0.0	0.0	0.0	100.0				
	64	873.77	0.0	500.0	-500.0	1.0	100.0	1	1195.77	551.77	0.0	0.0	0.0	0.0	0.0	0.0	0.0	0.0	0.0	0.0	1195.7679				
	65	55.59499999999999	0.0	60.04999999999999	-60.04999999999999	1.0	100.0	1	100.0	11.19	0.0	0.0	0.0	0.0	0.0	0.0	0.0	0.0	0.0	0.0	100.0				
	82	55.59499999999999	0.0	60.04999999999999	-60.04999999999999	1.0	100.0	1	100.0	11.19	0.0	0.0	0.0	0.0	0.0	0.0	0.0	0.0	0.0	0.0	100.0				
	89	137.0	14.97	149.7	-119.76	1.0	100.0	1	274.0	0.0	0.0	0.0	0.0	0.0	0.0	0.0	0.0	0.0	0.0	0.0	274.0				
	96	55.59499999999999	0.0	60.04999999999999	-60.04999999999999	1.0	100.0	1	100.0	11.19	0.0	0.0	0.0	0.0	0.0	0.0	0.0	0.0	0.0	0.0	100.0				
	105	0.0	0.0	33.33	-33.33	1.0	100.0	0	297.0	1.83	0.0	0.0	0.0	0.0	0.0	0.0	0.0	0.0	0.0	0.0	297.0				
	108	144.0	0.0	61.1	-61.1	1.0	100.0	1	288.0	0.0	0.0	0.0	0.0	0.0	0.0	0.0	0.0	0.0	0.0	0.0	288.0				
	117	141.0	0.0	61.1	-61.1	1.0	100.0	1	282.0	0.0	0.0	0.0	0.0	0.0	0.0	0.0	0.0	0.0	0.0	0.0	282.0				
	126	66.345	0.0	500.0	-500.0	1.0	100.0	1	92.8	39.89	0.0	0.0	0.0	0.0	0.0	0.0	0.0	0.0	0.0	0.0	92.804				
	128	0.0	0.0	33.33	-33.33	1.0	100.0	0	315.13	300.13	0.0	0.0	0.0	0.0	0.0	0.0	0.0	0.0	0.0	0.0	315.13				
	129	128.04	0.0	28.32	-28.32	1.0	200.0	1	200.0	56.08	0.0	0.0	0.0	0.0	0.0	0.0	0.0	0.0	0.0	0.0	200.0				
	130	128.04	0.0	28.32	-28.32	1.0	200.0	1	200.0	56.08	0.0	0.0	0.0	0.0	0.0	0.0	0.0	0.0	0.0	0.0	200.0				
	131	128.04	0.0	28.32	-28.32	1.0	200.0	1	200.0	56.08	0.0	0.0	0.0	0.0	0.0	0.0	0.0	0.0	0.0	0.0	200.0				
	132	128.04	0.0	28.32	-28.32	1.0	200.0	1	200.0	56.08	0.0	0.0	0.0	0.0	0.0	0.0	0.0	0.0	0.0	0.0	200.0				
	133	128.04	0.0	28.32	-28.32	1.0	200.0	1	200.0	56.08	0.0	0.0	0.0	0.0	0.0	0.0	0.0	0.0	0.0	0.0	200.0				
	134	128.04	0.0	28.32	-28.32	1.0	200.0	1	200.0	56.08	0.0	0.0	0.0	0.0	0.0	0.0	0.0	0.0	0.0	0.0	200.0				
	136	60.435	0.0	16.78	-16.78	1.0	100.0	1	100.0	20.87	0.0	0.0	0.0	0.0	0.0	0.0	0.0	0.0	0.0	0.0	100.0				
	142	129.5	0.0	86.64	-86.64	1.0	100.0	1	259.0	0.0	0.0	0.0	0.0	0.0	0.0	0.0	0.0	0.0	0.0	0.0	259.0				
	143	710.92	0.0	500.0	-500.0	1.0	100.0	1	835.31	586.53	0.0	0.0	0.0	0.0	0.0	0.0	0.0	0.0	0.0	0.0	835.31				
	146	0.0	0.0	33.33	-33.33	1.0	100.0	0	253.14999999999998	238.15	0.0	0.0	0.0	0.0	0.0	0.0	0.0	0.0	0.0	0.0	253.152				
	150	0.0	0.0	33.33	-33.33	1.0	100.0	0	158.58	143.58	0.0	0.0	0.0	0.0	0.0	0.0	0.0	0.0	0.0	0.0	158.58				
	151	24.97	0.0	500.0	-500.0	1.0	100.0	1	49.37	0.57	0.0	0.0	0.0	0.0	0.0	0.0	0.0	0.0	0.0	0.0	49.372				
	153	350.0	0.0	86.91	-86.91	1.0	600.0	1	600.0	100.0	0.0	0.0	0.0	0.0	0.0	0.0	0.0	0.0	0.0	0.0	600.0				
	157	350.0	0.0	86.91	-86.91	1.0	600.0	1	600.0	100.0	0.0	0.0	0.0	0.0	0.0	0.0	0.0	0.0	0.0	0.0	600.0				
	163	62.95	0.0	24.04	-24.04	1.0	100.0	1	100.0	25.900000000000002	0.0	0.0	0.0	0.0	0.0	0.0	0.0	0.0	0.0	0.0	100.0				
	165	57.115	0.0	22.31	-22.31	1.0	100.0	1	100.0	14.23	0.0	0.0	0.0	0.0	0.0	0.0	0.0	0.0	0.0	0.0	100.0				
	166	500.0	0.0	122.95	-122.95	1.0	800.0	1	800.0	200.0	0.0	0.0	0.0	0.0	0.0	0.0	0.0	0.0	0.0	0.0	800.0				
	167	500.0	0.0	122.95	-122.95	1.0	800.0	1	800.0	200.0	0.0	0.0	0.0	0.0	0.0	0.0	0.0	0.0	0.0	0.0	800.0				
	168	500.0	0.0	122.95	-122.95	1.0	800.0	1	800.0	200.0	0.0	0.0	0.0	0.0	0.0	0.0	0.0	0.0	0.0	0.0	800.0				
	169	500.0	0.0	122.95	-122.95	1.0	800.0	1	800.0	200.0	0.0	0.0	0.0	0.0	0.0	0.0	0.0	0.0	0.0	0.0	800.0				
	176	450.0	0.0	121.63999999999999	-121.63999999999999	1.0	700.0	1	700.0	200.0	0.0	0.0	0.0	0.0	0.0	0.0	0.0	0.0	0.0	0.0	700.0				
	179	128.04	0.0	28.32	-28.32	1.0	200.0	1	200.0	56.08	0.0	0.0	0.0	0.0	0.0	0.0	0.0	0.0	0.0	0.0	200.0				
	180	128.04	0.0	28.32	-28.32	1.0	200.0	1	200.0	56.08	0.0	0.0	0.0	0.0	0.0	0.0	0.0	0.0	0.0	0.0	200.0				
	182	350.0	0.0	86.91	-86.91	1.0	600.0	1	600.0	100.0	0.0	0.0	0.0	0.0	0.0	0.0	0.0	0.0	0.0	0.0	600.0				
	185	53.59	0.0	15.590000000000002	-15.590000000000002	1.0	100.0	1	100.0	7.180000000000001	0.0	0.0	0.0	0.0	0.0	0.0	0.0	0.0	0.0	0.0	100.0				
	187	450.0	0.0	121.63999999999999	-121.63999999999999	1.0	700.0	1	700.0	200.0	0.0	0.0	0.0	0.0	0.0	0.0	0.0	0.0	0.0	0.0	700.0				
	188	450.0	0.0	121.63999999999999	-121.63999999999999	1.0	700.0	1	700.0	200.0	0.0	0.0	0.0	0.0	0.0	0.0	0.0	0.0	0.0	0.0	700.0				
	189	450.0	0.0	121.63999999999999	-121.63999999999999	1.0	700.0	1	700.0	200.0	0.0	0.0	0.0	0.0	0.0	0.0	0.0	0.0	0.0	0.0	700.0				
	194	144.0	0.0	75.98	-75.98	1.0	100.0	1	288.0	0.0	0.0	0.0	0.0	0.0	0.0	0.0	0.0	0.0	0.0	0.0	288.0				
	202	0.0	0.0	33.33	-33.33	1.0	100.0	0	74.68	59.68	0.0	0.0	0.0	0.0	0.0	0.0	0.0	0.0	0.0	0.0	74.677				
	204	350.0	0.0	86.91	-86.91	1.0	600.0	1	600.0	100.0	0.0	0.0	0.0	0.0	0.0	0.0	0.0	0.0	0.0	0.0	600.0				
	210	56.3	0.0	18.22	-18.22	1.0	100.0	1	100.0	12.6	0.0	0.0	0.0	0.0	0.0	0.0	0.0	0.0	0.0	0.0	100.0				
	213	56.8	0.0	19.22	-19.22	1.0	100.0	1	100.0	13.600000000000001	0.0	0.0	0.0	0.0	0.0	0.0	0.0	0.0	0.0	0.0	100.0				
	216	309.775	0.0	500.0	-500.0	1.0	100.0	1	371.73	247.81999999999996	0.0	0.0	0.0	0.0	0.0	0.0	0.0	0.0	0.0	0.0	371.734				
	224	56.79500000000001	0.0	22.36	-22.36	1.0	100.0	1	100.0	13.59	0.0	0.0	0.0	0.0	0.0	0.0	0.0	0.0	0.0	0.0	100.0				
	227	132.0	0.0	440.92	-440.92	1.0	100.0	1	264.0	0.0	0.0	0.0	0.0	0.0	0.0	0.0	0.0	0.0	0.0	0.0	264.0				
	227	322.3	0.0	500.0	-500.0	1.0	100.0	1	386.76	257.84	0.0	0.0	0.0	0.0	0.0	0.0	0.0	0.0	0.0	0.0	386.761				
	229	124.955	0.0	25.66	-25.66	1.0	200.0	1	200.0	49.91	0.0	0.0	0.0	0.0	0.0	0.0	0.0	0.0	0.0	0.0	200.0				
	230	59.12500000000001	0.0	24.93	-24.93	1.0	100.0	1	100.0	18.25	0.0	0.0	0.0	0.0	0.0	0.0	0.0	0.0	0.0	0.0	100.0				
	232	57.455	0.0	22.3	-22.3	1.0	100.0	1	100.0	14.91	0.0	0.0	0.0	0.0	0.0	0.0	0.0	0.0	0.0	0.0	100.0				
	237	199.31	0.0	16.42	-16.42	1.0	300.0	1	300.0	98.62	0.0	0.0	0.0	0.0	0.0	0.0	0.0	0.0	0.0	0.0	300.0				
	238	57.62500000000001	0.0	22.17	-22.17	1.0	100.0	1	100.0	15.25	0.0	0.0	0.0	0.0	0.0	0.0	0.0	0.0	0.0	0.0	100.0				
	239	500.0	96.235	195.0	-2.53	1.0	800.0	1	800.0	200.0	0.0	0.0	0.0	0.0	0.0	0.0	0.0	0.0	0.0	0.0	800.0				
	242	45.44	0.0	500.0	-500.0	1.0	100.0	1	59.84	31.04	0.0	0.0	0.0	0.0	0.0	0.0	0.0	0.0	0.0	0.0	59.838				
	244	0.0	0.0	33.33	-33.33	1.0	100.0	0	400.96	385.96	0.0	0.0	0.0	0.0	0.0	0.0	0.0	0.0	0.0	0.0	400.964				
	247	13.489999999999998	0.0	500.0	-500.0	1.0	100.0	1	26.39	0.59	0.0	0.0	0.0	0.0	0.0	0.0	0.0	0.0	0.0	0.0	26.389				
	248	337.55	0.0	500.0	-500.0	1.0	100.0	1	405.06	270.04	0.0	0.0	0.0	0.0	0.0	0.0	0.0	0.0	0.0	0.0	405.056				
	255	59.12500000000001	0.0	24.93	-24.93	1.0	100.0	1	100.0	18.25	0.0	0.0	0.0	0.0	0.0	0.0	0.0	0.0	0.0	0.0	100.0				
	256	124.955	0.0	25.66	-25.66	1.0	200.0	1	200.0	49.91	0.0	0.0	0.0	0.0	0.0	0.0	0.0	0.0	0.0	0.0	200.0				
	258	57.455	0.0	22.3	-22.3	1.0	100.0	1	100.0	14.91	0.0	0.0	0.0	0.0	0.0	0.0	0.0	0.0	0.0	0.0	100.0				
	261	124.955	0.0	25.66	-25.66	1.0	200.0	1	200.0	49.91	0.0	0.0	0.0	0.0	0.0	0.0	0.0	0.0	0.0	0.0	200.0				
	269	56.79500000000001	0.0	22.36	-22.36	1.0	100.0	1	100.0	13.59	0.0	0.0	0.0	0.0	0.0	0.0	0.0	0.0	0.0	0.0	100.0				
	270	500.0	95.235	193.0	-2.53	1.0	800.0	1	800.0	200.0	0.0	0.0	0.0	0.0	0.0	0.0	0.0	0.0	0.0	0.0	800.0				
	273	57.62500000000001	0.0	22.17	-22.17	1.0	100.0	1	100.0	15.25	0.0	0.0	0.0	0.0	0.0	0.0	0.0	0.0	0.0	0.0	100.0				
	279	60.45	0.0	34.68	-34.68	1.0	100.0	1	100.0	20.9	0.0	0.0	0.0	0.0	0.0	0.0	0.0	0.0	0.0	0.0	100.0				
	280	58.404999999999994	0.0	36.4	-36.4	1.0	100.0	1	100.0	16.81	0.0	0.0	0.0	0.0	0.0	0.0	0.0	0.0	0.0	0.0	100.0				
	284	291.705	0.0	500.0	-500.0	1.0	100.0	1	391.25	192.16	0.0	0.0	0.0	0.0	0.0	0.0	0.0	0.0	0.0	0.0	391.254				
	289	57.42499999999999	0.0	21.85	-21.85	1.0	100.0	1	100.0	14.85	0.0	0.0	0.0	0.0	0.0	0.0	0.0	0.0	0.0	0.0	100.0				
	292	57.42499999999999	0.0	48.87	-48.87	1.0	100.0	1	100.0	14.85	0.0	0.0	0.0	0.0	0.0	0.0	0.0	0.0	0.0	0.0	100.0				
	293	57.42499999999999	0.0	48.87	-48.87	1.0	100.0	1	100.0	14.85	0.0	0.0	0.0	0.0	0.0	0.0	0.0	0.0	0.0	0.0	100.0				
	295	60.45	0.0	34.68	-34.68	1.0	100.0	1	100.0	20.9	0.0	0.0	0.0	0.0	0.0	0.0	0.0	0.0	0.0	0.0	100.0				
	300	58.935	0.0	29.48	-29.48	1.0	100.0	1	100.0	17.87	0.0	0.0	0.0	0.0	0.0	0.0	0.0	0.0	0.0	0.0	100.0				
	301	58.935	0.0	29.48	-29.48	1.0	100.0	1	100.0	17.87	0.0	0.0	0.0	0.0	0.0	0.0	0.0	0.0	0.0	0.0	100.0				
	302	139.0	0.0	204.62000000000003	-204.62000000000003	1.0	100.0	1	278.0	0.0	0.0	0.0	0.0	0.0	0.0	0.0	0.0	0.0	0.0	0.0	278.0				
	302	1355.925	0.0	500.0	-500.0	1.0	100.0	1	1627.1100000000001	1084.74	0.0	0.0	0.0	0.0	0.0	0.0	0.0	0.0	0.0	0.0	1627.1121				
	303	57.485	0.0	56.99000000000001	-56.99000000000001	1.0	100.0	1	100.0	14.97	0.0	0.0	0.0	0.0	0.0	0.0	0.0	0.0	0.0	0.0	100.0				
	306	56.175	0.0	43.22	-43.22	1.0	100.0	1	100.0	12.35	0.0	0.0	0.0	0.0	0.0	0.0	0.0	0.0	0.0	0.0	100.0				
	307	56.175	0.0	43.22	-43.22	1.0	100.0	1	100.0	12.35	0.0	0.0	0.0	0.0	0.0	0.0	0.0	0.0	0.0	0.0	100.0				
	308	56.79	0.0	20.9	-20.9	1.0	100.0	1	100.0	13.58	0.0	0.0	0.0	0.0	0.0	0.0	0.0	0.0	0.0	0.0	100.0				
	313	56.175	0.0	43.22	-43.22	1.0	100.0	1	100.0	12.35	0.0	0.0	0.0	0.0	0.0	0.0	0.0	0.0	0.0	0.0	100.0				
	314	0.0	0.0	33.33	-33.33	1.0	100.0	0	82.53	67.53	0.0	0.0	0.0	0.0	0.0	0.0	0.0	0.0	0.0	0.0	82.526				
	317	58.935	0.0	29.48	-29.48	1.0	100.0	1	100.0	17.87	0.0	0.0	0.0	0.0	0.0	0.0	0.0	0.0	0.0	0.0	100.0				
	318	58.935	0.0	29.48	-29.48	1.0	100.0	1	100.0	17.87	0.0	0.0	0.0	0.0	0.0	0.0	0.0	0.0	0.0	0.0	100.0				
	322	57.485	0.0	56.99000000000001	-56.99000000000001	1.0	100.0	1	100.0	14.97	0.0	0.0	0.0	0.0	0.0	0.0	0.0	0.0	0.0	0.0	100.0				
	323	57.485	0.0	56.99000000000001	-56.99000000000001	1.0	100.0	1	100.0	14.97	0.0	0.0	0.0	0.0	0.0	0.0	0.0	0.0	0.0	0.0	100.0				
	324	57.42499999999999	0.0	21.85	-21.85	1.0	100.0	1	100.0	14.85	0.0	0.0	0.0	0.0	0.0	0.0	0.0	0.0	0.0	0.0	100.0				
	325	57.42499999999999	0.0	21.85	-21.85	1.0	100.0	1	100.0	14.85	0.0	0.0	0.0	0.0	0.0	0.0	0.0	0.0	0.0	0.0	100.0				
	326	56.79	0.0	20.9	-20.9	1.0	100.0	1	100.0	13.58	0.0	0.0	0.0	0.0	0.0	0.0	0.0	0.0	0.0	0.0	100.0				
	327	56.79	0.0	20.9	-20.9	1.0	100.0	1	100.0	13.58	0.0	0.0	0.0	0.0	0.0	0.0	0.0	0.0	0.0	0.0	100.0				
	328	57.42499999999999	0.0	21.85	-21.85	1.0	100.0	1	100.0	14.85	0.0	0.0	0.0	0.0	0.0	0.0	0.0	0.0	0.0	0.0	100.0				
	334	18.9	0.0	27.22	-27.22	1.0	100.0	1	37.8	0.0	0.0	0.0	0.0	0.0	0.0	0.0	0.0	0.0	0.0	0.0	37.8				
	335	43.845	0.0	500.0	-500.0	1.0	100.0	1	54.65	33.04	0.0	0.0	0.0	0.0	0.0	0.0	0.0	0.0	0.0	0.0	54.645				
	336	43.845	0.0	500.0	-500.0	1.0	100.0	1	54.65	33.04	0.0	0.0	0.0	0.0	0.0	0.0	0.0	0.0	0.0	0.0	54.645				
	339	0.0	0.0	33.33	-33.33	1.0	100.0	0	32.91	17.91	0.0	0.0	0.0	0.0	0.0	0.0	0.0	0.0	0.0	0.0	32.912				
	343	17.905	0.0	25.78	-25.78	1.0	100.0	1	35.81	0.0	0.0	0.0	0.0	0.0	0.0	0.0	0.0	0.0	0.0	0.0	35.812				
	345	23.44	0.0	33.75	-33.75	1.0	100.0	1	46.88	0.0	0.0	0.0	0.0	0.0	0.0	0.0	0.0	0.0	0.0	0.0	46.875				
	347	23.44	0.0	33.75	-33.75	1.0	100.0	1	46.88	0.0	0.0	0.0	0.0	0.0	0.0	0.0	0.0	0.0	0.0	0.0	46.875				
	349	31.05	0.0	44.71	-44.71	1.0	100.0	1	62.1	0.0	0.0	0.0	0.0	0.0	0.0	0.0	0.0	0.0	0.0	0.0	62.1				
	351	21.565	0.0	31.05	-31.05	1.0	100.0	1	43.13	0.0	0.0	0.0	0.0	0.0	0.0	0.0	0.0	0.0	0.0	0.0	43.125				
	352	21.565	0.0	31.05	-31.05	1.0	100.0	1	43.13	0.0	0.0	0.0	0.0	0.0	0.0	0.0	0.0	0.0	0.0	0.0	43.125				
	354	24.94	0.0	500.0	-500.0	1.0	100.0	1	39.69	10.19	0.0	0.0	0.0	0.0	0.0	0.0	0.0	0.0	0.0	0.0	39.69				
	356	34.69	0.0	49.95	-49.95	1.0	100.0	1	69.38	0.0	0.0	0.0	0.0	0.0	0.0	0.0	0.0	0.0	0.0	0.0	69.375				
	360	9.375	0.0	13.5	-13.5	1.0	100.0	1	18.75	0.0	0.0	0.0	0.0	0.0	0.0	0.0	0.0	0.0	0.0	0.0	18.75				
	361	9.375	0.0	13.5	-13.5	1.0	100.0	1	18.75	0.0	0.0	0.0	0.0	0.0	0.0	0.0	0.0	0.0	0.0	0.0	18.75				
	362	9.375	0.0	13.5	-13.5	1.0	100.0	1	18.75	0.0	0.0	0.0	0.0	0.0	0.0	0.0	0.0	0.0	0.0	0.0	18.75				
	365	0.0	0.0	33.33	-33.33	1.0	100.0	0	43.67	28.67	0.0	0.0	0.0	0.0	0.0	0.0	0.0	0.0	0.0	0.0	43.668				
	367	43.675	0.0	63.18	-63.18	1.0	100.0	1	87.35	0.0	0.0	0.0	0.0	0.0	0.0	0.0	0.0	0.0	0.0	0.0	87.345				
	369	16.925	0.0	24.37	-24.37	1.0	100.0	1	33.85	0.0	0.0	0.0	0.0	0.0	0.0	0.0	0.0	0.0	0.0	0.0	33.85				
	370	0.0	0.0	33.33	-33.33	1.0	100.0	0	40.14	25.14	0.0	0.0	0.0	0.0	0.0	0.0	0.0	0.0	0.0	0.0	40.138				
	374	0.0	0.0	33.33	-33.33	1.0	100.0	0	26.22	11.22	0.0	0.0	0.0	0.0	0.0	0.0	0.0	0.0	0.0	0.0	26.224				
	375	0.0	0.0	33.33	-33.33	1.0	100.0	0	269.0	8.5	0.0	0.0	0.0	0.0	0.0	0.0	0.0	0.0	0.0	0.0	269.0				
	376	0.0	0.0	33.33	-33.33	1.0	100.0	0	34.71	19.71	0.0	0.0	0.0	0.0	0.0	0.0	0.0	0.0	0.0	0.0	34.714				
	377	0.0	0.0	33.33	-33.33	1.0	100.0	0	87.2	72.2	0.0	0.0	0.0	0.0	0.0	0.0	0.0	0.0	0.0	0.0	87.2				
	382	21.885	0.0	500.0	-500.0	1.0	100.0	1	42.77	1.0	0.0	0.0	0.0	0.0	0.0	0.0	0.0	0.0	0.0	0.0	42.766				
	383	34.08	0.0	500.0	-500.0	1.0	100.0	1	49.67	18.49	0.0	0.0	0.0	0.0	0.0	0.0	0.0	0.0	0.0	0.0	49.675				
	388	51.17499999999999	0.0	500.0	-500.0	1.0	100.0	1	95.57	6.78	0.0	0.0	0.0	0.0	0.0	0.0	0.0	0.0	0.0	0.0	95.575				
	412	23.44	0.0	33.75	-33.75	1.0	100.0	1	46.88	0.0	0.0	0.0	0.0	0.0	0.0	0.0	0.0	0.0	0.0	0.0	46.875				
	417	32.01	0.0	500.0	-500.0	1.0	100.0	1	41.74	22.28	0.0	0.0	0.0	0.0	0.0	0.0	0.0	0.0	0.0	0.0	41.739				
	421	14.065	0.0	20.25	-20.25	1.0	100.0	1	28.13	0.0	0.0	0.0	0.0	0.0	0.0	0.0	0.0	0.0	0.0	0.0	28.125				
	422	24.46	0.0	500.0	-500.0	1.0	100.0	1	33.5	15.42	0.0	0.0	0.0	0.0	0.0	0.0	0.0	0.0	0.0	0.0	33.499				
	438	41.25	0.0	59.4	-59.4	1.0	100.0	1	82.5	0.0	0.0	0.0	0.0	0.0	0.0	0.0	0.0	0.0	0.0	0.0	82.5				
	444	0.0	0.0	33.33	-33.33	1.0	100.0	0	261.0	0.96	0.0	0.0	0.0	0.0	0.0	0.0	0.0	0.0	0.0	0.0	261.0				
	445	0.0	0.0	33.33	-33.33	1.0	100.0	0	88.57	73.57	0.0	0.0	0.0	0.0	0.0	0.0	0.0	0.0	0.0	0.0	88.567				
	446	64.39	91.28	188.0	-5.44	1.0	100.0	1	100.0	28.78	0.0	0.0	0.0	0.0	0.0	0.0	0.0	0.0	0.0	0.0	100.0				
	447	64.39	95.78	197.0	-5.44	1.0	100.0	1	100.0	28.78	0.0	0.0	0.0	0.0	0.0	0.0	0.0	0.0	0.0	0.0	100.0				
	448	64.39	86.28	178.0	-5.44	1.0	100.0	1	100.0	28.78	0.0	0.0	0.0	0.0	0.0	0.0	0.0	0.0	0.0	0.0	100.0				
	449	0.0	0.0	33.33	-33.33	1.0	100.0	0	88.88	73.87	0.0	0.0	0.0	0.0	0.0	0.0	0.0	0.0	0.0	0.0	88.875				
	452	193.835	0.0	32.63	-32.63	1.0	300.0	1	300.0	87.67	0.0	0.0	0.0	0.0	0.0	0.0	0.0	0.0	0.0	0.0	300.0				
	458	55.505	0.0	500.0	-500.0	1.0	100.0	1	108.04	2.97	0.0	0.0	0.0	0.0	0.0	0.0	0.0	0.0	0.0	0.0	108.038				
	460	130.0	0.0	169.4	-169.4	1.0	100.0	1	260.0	0.0	0.0	0.0	0.0	0.0	0.0	0.0	0.0	0.0	0.0	0.0	260.0				
	467	64.39	96.28	198.0	-5.44	1.0	100.0	1	100.0	28.78	0.0	0.0	0.0	0.0	0.0	0.0	0.0	0.0	0.0	0.0	100.0				
	468	64.39	92.28	190.0	-5.44	1.0	100.0	1	100.0	28.78	0.0	0.0	0.0	0.0	0.0	0.0	0.0	0.0	0.0	0.0	100.0				
	469	64.39	92.28	190.0	-5.44	1.0	100.0	1	100.0	28.78	0.0	0.0	0.0	0.0	0.0	0.0	0.0	0.0	0.0	0.0	100.0				
	470	64.39	84.78	175.0	-5.44	1.0	100.0	1	100.0	28.78	0.0	0.0	0.0	0.0	0.0	0.0	0.0	0.0	0.0	0.0	100.0				
	471	64.39	84.78	175.0	-5.44	1.0	100.0	1	100.0	28.78	0.0	0.0	0.0	0.0	0.0	0.0	0.0	0.0	0.0	0.0	100.0				
	472	64.39	94.78	195.0	-5.44	1.0	100.0	1	100.0	28.78	0.0	0.0	0.0	0.0	0.0	0.0	0.0	0.0	0.0	0.0	100.0				
	473	64.39	90.78	187.0	-5.44	1.0	100.0	1	100.0	28.78	0.0	0.0	0.0	0.0	0.0	0.0	0.0	0.0	0.0	0.0	100.0				
	476	60.309999999999995	87.48	184.0	-9.04	1.0	100.0	1	100.0	20.62	0.0	0.0	0.0	0.0	0.0	0.0	0.0	0.0	0.0	0.0	100.0				
	477	55.425000000000004	0.0	26.979999999999997	-26.979999999999997	1.0	100.0	1	100.0	10.85	0.0	0.0	0.0	0.0	0.0	0.0	0.0	0.0	0.0	0.0	100.0				
	478	60.309999999999995	87.48	184.0	-9.04	1.0	100.0	1	100.0	20.62	0.0	0.0	0.0	0.0	0.0	0.0	0.0	0.0	0.0	0.0	100.0				
	484	139.5	0.0	189.9	-189.9	1.0	100.0	1	279.0	0.0	0.0	0.0	0.0	0.0	0.0	0.0	0.0	0.0	0.0	0.0	279.0				
	484	0.0	0.0	33.33	-33.33	1.0	100.0	0	256.22	241.22	0.0	0.0	0.0	0.0	0.0	0.0	0.0	0.0	0.0	0.0	256.221				
	492	131.5	0.0	101.08	-101.08	1.0	100.0	1	263.0	0.0	0.0	0.0	0.0	0.0	0.0	0.0	0.0	0.0	0.0	0.0	263.0				
	503	141.5	0.0	127.49999999999999	-127.49999999999999	1.0	100.0	1	283.0	0.0	0.0	0.0	0.0	0.0	0.0	0.0	0.0	0.0	0.0	0.0	283.0				
	505	64.39	90.28	186.0	-5.44	1.0	100.0	1	100.0	28.78	0.0	0.0	0.0	0.0	0.0	0.0	0.0	0.0	0.0	0.0	100.0				
	506	64.39	85.28	176.0	-5.44	1.0	100.0	1	100.0	28.78	0.0	0.0	0.0	0.0	0.0	0.0	0.0	0.0	0.0	0.0	100.0				
	507	64.39	95.78	197.0	-5.44	1.0	100.0	1	100.0	28.78	0.0	0.0	0.0	0.0	0.0	0.0	0.0	0.0	0.0	0.0	100.0				
	508	64.39	87.28	180.0	-5.44	1.0	100.0	1	100.0	28.78	0.0	0.0	0.0	0.0	0.0	0.0	0.0	0.0	0.0	0.0	100.0				
	509	64.39	87.28	180.0	-5.44	1.0	100.0	1	100.0	28.78	0.0	0.0	0.0	0.0	0.0	0.0	0.0	0.0	0.0	0.0	100.0				
	510	64.39	86.28	178.0	-5.44	1.0	100.0	1	100.0	28.78	0.0	0.0	0.0	0.0	0.0	0.0	0.0	0.0	0.0	0.0	100.0				
	511	64.39	86.28	178.0	-5.44	1.0	100.0	1	100.0	28.78	0.0	0.0	0.0	0.0	0.0	0.0	0.0	0.0	0.0	0.0	100.0				
	514	64.39	94.28	194.0	-5.44	1.0	100.0	1	100.0	28.78	0.0	0.0	0.0	0.0	0.0	0.0	0.0	0.0	0.0	0.0	100.0				
	515	64.39	88.78	183.0	-5.44	1.0	100.0	1	100.0	28.78	0.0	0.0	0.0	0.0	0.0	0.0	0.0	0.0	0.0	0.0	100.0				
	516	63.65500000000001	6.0	188.0	-176.0	1.0	100.0	1	100.0	27.310000000000002	0.0	0.0	0.0	0.0	0.0	0.0	0.0	0.0	0.0	0.0	100.0				
	517	63.65500000000001	4.5	189.0	-180.0	1.0	100.0	1	100.0	27.310000000000002	0.0	0.0	0.0	0.0	0.0	0.0	0.0	0.0	0.0	0.0	100.0				
	518	63.65500000000001	15.5	198.0	-167.0	1.0	100.0	1	100.0	27.310000000000002	0.0	0.0	0.0	0.0	0.0	0.0	0.0	0.0	0.0	0.0	100.0				
	520	57.9	0.0	20.46	-20.46	1.0	100.0	1	100.0	15.8	0.0	0.0	0.0	0.0	0.0	0.0	0.0	0.0	0.0	0.0	100.0				
	521	57.9	0.0	20.46	-20.46	1.0	100.0	1	100.0	15.8	0.0	0.0	0.0	0.0	0.0	0.0	0.0	0.0	0.0	0.0	100.0				
	522	117.485	86.045	175.0	-2.91	1.0	200.0	1	200.0	34.97	0.0	0.0	0.0	0.0	0.0	0.0	0.0	0.0	0.0	0.0	200.0				
	523	117.485	93.545	190.0	-2.91	1.0	200.0	1	200.0	34.97	0.0	0.0	0.0	0.0	0.0	0.0	0.0	0.0	0.0	0.0	200.0				
	524	117.485	93.545	190.0	-2.91	1.0	200.0	1	200.0	34.97	0.0	0.0	0.0	0.0	0.0	0.0	0.0	0.0	0.0	0.0	200.0				
	525	64.39	86.78	179.0	-5.44	1.0	100.0	1	100.0	28.78	0.0	0.0	0.0	0.0	0.0	0.0	0.0	0.0	0.0	0.0	100.0				
	527	138.0	0.0	89.92	-89.92	1.0	100.0	1	276.0	0.0	0.0	0.0	0.0	0.0	0.0	0.0	0.0	0.0	0.0	0.0	276.0				
	527	191.38	0.0	500.0	-500.0	1.0	100.0	1	240.19999999999996	142.56	0.0	0.0	0.0	0.0	0.0	0.0	0.0	0.0	0.0	0.0	240.197				
	534	114.53999999999999	0.0	500.0	-500.0	1.0	100.0	1	211.64000000000001	17.44	0.0	0.0	0.0	0.0	0.0	0.0	0.0	0.0	0.0	0.0	211.644				
	536	44.115	0.0	500.0	-500.0	1.0	100.0	1	86.35	1.8799999999999997	0.0	0.0	0.0	0.0	0.0	0.0	0.0	0.0	0.0	0.0	86.354				
	541	130.0	-16.555	132.44	-165.55	1.0	100.0	1	260.0	0.0	0.0	0.0	0.0	0.0	0.0	0.0	0.0	0.0	0.0	0.0	260.0				
	562	0.0	0.0	33.33	-33.33	1.0	100.0	0	160.76	145.76	0.0	0.0	0.0	0.0	0.0	0.0	0.0	0.0	0.0	0.0	160.761				
	564	55.59499999999999	0.0	60.04999999999999	-60.04999999999999	1.0	100.0	1	100.0	11.19	0.0	0.0	0.0	0.0	0.0	0.0	0.0	0.0	0.0	0.0	100.0				
	567	278.115	0.0	40.29	-40.29	1.0	400.0	1	415.00000000000006	141.23	0.0	0.0	0.0	0.0	0.0	0.0	0.0	0.0	0.0	0.0	415.0				
	578	0.0	0.0	33.33	-33.33	1.0	100.0	0	200.76	185.77	0.0	0.0	0.0	0.0	0.0	0.0	0.0	0.0	0.0	0.0	200.765				
	579	128.5	0.0	60.96	-60.96	1.0	100.0	1	257.0	0.0	0.0	0.0	0.0	0.0	0.0	0.0	0.0	0.0	0.0	0.0	257.0				
	581	137.0	8.915	89.15	-71.32	1.0	100.0	1	274.0	0.0	0.0	0.0	0.0	0.0	0.0	0.0	0.0	0.0	0.0	0.0	274.0				
	589	27.77	0.0	500.0	-500.0	1.0	100.0	1	41.8	13.74	0.0	0.0	0.0	0.0	0.0	0.0	0.0	0.0	0.0	0.0	41.796				
	590	140.0	0.0	77.68	-77.68	1.0	100.0	1	280.0	0.0	0.0	0.0	0.0	0.0	0.0	0.0	0.0	0.0	0.0	0.0	280.0				
	590	0.0	0.0	33.33	-33.33	1.0	100.0	0	96.24	81.24	0.0	0.0	0.0	0.0	0.0	0.0	0.0	0.0	0.0	0.0	96.242				
	592	921.475	0.0	500.0	-500.0	1.0	100.0	1	1105.77	737.18	0.0	0.0	0.0	0.0	0.0	0.0	0.0	0.0	0.0	0.0	1105.772				
	594	55.59499999999999	0.0	60.04999999999999	-60.04999999999999	1.0	100.0	1	100.0	11.19	0.0	0.0	0.0	0.0	0.0	0.0	0.0	0.0	0.0	0.0	100.0				
	595	27.575	0.0	500.0	-500.0	1.0	100.0	1	41.89	13.26	0.0	0.0	0.0	0.0	0.0	0.0	0.0	0.0	0.0	0.0	41.894				
	603	134.0	14.97	149.7	-119.76	1.0	100.0	1	268.0	0.0	0.0	0.0	0.0	0.0	0.0	0.0	0.0	0.0	0.0	0.0	268.0				
	606	250.0	0.0	40.06	-40.06	1.0	400.0	1	400.0	100.0	0.0	0.0	0.0	0.0	0.0	0.0	0.0	0.0	0.0	0.0	400.0				
	610	20.23	0.0	500.0	-500.0	1.0	100.0	1	28.910000000000004	11.55	0.0	0.0	0.0	0.0	0.0	0.0	0.0	0.0	0.0	0.0	28.906				
	613	250.0	0.0	40.06	-40.06	1.0	400.0	1	400.0	100.0	0.0	0.0	0.0	0.0	0.0	0.0	0.0	0.0	0.0	0.0	400.0				
	617	55.59499999999999	0.0	60.04999999999999	-60.04999999999999	1.0	100.0	1	100.0	11.19	0.0	0.0	0.0	0.0	0.0	0.0	0.0	0.0	0.0	0.0	100.0				
	618	26.5	0.0	500.0	-500.0	1.0	100.0	1	42.05	10.95	0.0	0.0	0.0	0.0	0.0	0.0	0.0	0.0	0.0	0.0	42.049				
	620	141.0	0.0	214.57999999999998	-214.57999999999998	1.0	100.0	1	282.0	0.0	0.0	0.0	0.0	0.0	0.0	0.0	0.0	0.0	0.0	0.0	282.0				
...
];

%% branch data
%    f_bus    t_bus    r    x    b    rateA    rateB    rateC    ratio    angle    status    angmin    angmax
mpc.branch = [
	1	29	0.0	0.00028	0.0	167.34	200.81000000000003	251.01	0	0	1	-29.999999999999996	29.999999999999996								
	1	1421	0.0001	0.01	0.0	166.52	199.82	249.77999999999997	0	0	1	-29.999999999999996	29.999999999999996								
	13	2	0.00125	0.1	0.0	45.88	55.059999999999995	82.59	1.01	0.0	1	-29.999999999999996	29.999999999999996								
	3	9	0.00084	0.00355	0.0	41.29	49.55	74.33	0	0	1	-29.999999999999996	29.999999999999996								
	3	23	0.00094	0.00313	0.0	52.06000000000001	62.470000000000006	93.71	0	0	1	-29.999999999999996	29.999999999999996								
	4	12	0.00207	0.00925	0.0	208.73	250.48	313.1	0	0	1	-29.999999999999996	29.999999999999996								
	4	39	0.00233	0.008	0.0	206.39	247.66999999999996	309.58	0	0	1	-29.999999999999996	29.999999999999996								
	5	30	0.0	0.00028	0.0	199.61	239.53000000000003	299.41	0	0	1	-29.999999999999996	29.999999999999996								
	5	37	0.00244	0.00805	0.0	202.03000000000003	242.44	303.04	0	0	1	-29.999999999999996	29.999999999999996								
	40	6	0.00125	0.1	0.0	49.98	59.97	89.96	1.01	0.0	1	-29.999999999999996	29.999999999999996								
	7	42	0.0	0.00028	0.0	27.48	32.97	49.46	0	0	1	-29.999999999999996	29.999999999999996								
	8	12	0.00416	0.0195	0.0	59.12	70.95	106.42	0	0	1	-29.999999999999996	29.999999999999996								
	9	12	0.00238	0.00783	0.0	41.39	49.67	74.51	0	0	1	-29.999999999999996	29.999999999999996								
	10	14	0.00246	0.00908	0.0	168.69	202.43	303.65	0	0	1	-29.999999999999996	29.999999999999996								
	10	25	0.0002	0.00092	0.0	131.45	157.74	236.61000000000004	0	0	1	-29.999999999999996	29.999999999999996								
	10	35	0.01502	0.05819	0.0	83.45	100.14	150.21	0	0	1	-29.999999999999996	29.999999999999996								
	10	43	0.00186	0.00691	0.0	73.37	88.04	132.06	0	0	1	-29.999999999999996	29.999999999999996								
	10	1425	0.0001	0.01	0.0	172.67	207.20000000000002	259.0	0	0	1	-29.999999999999996	29.999999999999996								
	11	25	0.01413	0.06328	0.0	131.52	157.82	236.72999999999996	0	0	1	-29.999999999999996	29.999999999999996								
	12	20	0.02839	0.12908	0.0	46.08	55.3	82.95	0	0	1	-29.999999999999996	29.999999999999996								
	12	28	0.00496	0.01638	0.0	180.75	216.9	271.13	0	0	1	-29.999999999999996	29.999999999999996								
	12	41	0.01216	0.05532	0.0	60.69	72.83	91.04	0	0	1	-29.999999999999996	29.999999999999996								
	12	1419	0.0001	0.01	0.0	83.7	98.6	125.55000000000001	0	0	1	-29.999999999999996	29.999999999999996								
	13	15	0.00125	0.1	0.0	46.6	55.92	83.88	1.01	0.0	1	-29.999999999999996	29.999999999999996								
	13	26	0.00125	0.1	0.0	46.6	55.92	83.88	1.01	0.0	1	-29.999999999999996	29.999999999999996								
	13	30	0.00384	0.00936	0.0	402.23	482.68000000000006	603.35	0	0	1	-29.999999999999996	29.999999999999996								
	13	40	0.0	0.00022	0.0	250.91000000000003	301.09	376.37	0	0	1	-29.999999999999996	29.999999999999996								
	13	45	0.00125	0.1	0.0	46.6	55.92	83.88	1.01	0.0	1	-29.999999999999996	29.999999999999996								
	14	18	0.00036	0.00122	0.0	169.4	203.28	304.91	0	0	1	-29.999999999999996	29.999999999999996								
	40	16	0.00125	0.1	0.0	49.98	59.97	89.96	1.01	0.0	1	-29.999999999999996	29.999999999999996								
	17	29	0.0	0.00028	0.0	110.55	132.66	165.82	0	0	1	-29.999999999999996	29.999999999999996								
	17	1416	0.0001	0.01	0.0	83.7	98.6	125.55000000000001	0	0	1	-29.999999999999996	29.999999999999996								
	18	38	0.0	0.00027	0.0	50.0	60.0	90.0	0	0	1	-29.999999999999996	29.999999999999996								
	19	22	0.00057	0.00168	0.0	115.21	138.25	207.37	0	0	1	-29.999999999999996	29.999999999999996								
	19	43	0.00058	0.00165	0.0	75.53	90.64	135.96	0	0	1	-29.999999999999996	29.999999999999996								
	19	46	0.0	0.00022	0.0	50.0	60.0	90.0	0	0	1	-29.999999999999996	29.999999999999996								
	20	23	0.03085	0.10176	0.0	51.13999999999999	61.370000000000005	92.05	0	0	1	-29.999999999999996	29.999999999999996								
	20	33	0.00379	0.01253	0.0	96.01	115.21	172.82	0	0	1	-29.999999999999996	29.999999999999996								
	21	35	0.0081	0.02869	0.0	14.99	17.98	26.97	0	0	1	-29.999999999999996	29.999999999999996								
	22	33	0.01025	0.03521	0.0	116.65	139.98	209.97	0	0	1	-29.999999999999996	29.999999999999996								
	40	24	0.00125	0.1	0.0	49.98	59.97	89.96	1.01	0.0	1	-29.999999999999996	29.999999999999996								
	40	27	0.00125	0.1	0.0	49.98	59.97	89.96	1.01	0.0	1	-29.999999999999996	29.999999999999996								
	28	29	0.0	0.00028	0.0	179.24	215.09	268.86	0	0	1	-29.999999999999996	29.999999999999996								
	29	40	0.00392	0.00918	0.0	405.62000000000006	486.74	608.43	0	0	1	-29.999999999999996	29.999999999999996								
	30	31	0.0	0.00028	0.0	27.839999999999996	33.41	50.12	0	0	1	-29.999999999999996	29.999999999999996								
	30	404	0.0001	0.01	0.0	83.7	98.6	125.55000000000001	0	0	1	-29.999999999999996	29.999999999999996								
	32	33	0.00703	0.01458	0.0	21.39	25.66	38.5	0	0	1	-29.999999999999996	29.999999999999996								
	40	34	0.00125	0.1	0.0	49.98	59.97	89.96	1.01	0.0	1	-29.999999999999996	29.999999999999996								
	35	36	0.01761	0.06819	0.0	69.46	83.35	125.03	0	0	1	-29.999999999999996	29.999999999999996								
	36	42	0.00559	0.0192	0.0	70.03	84.04	126.05999999999999	0	0	1	-29.999999999999996	29.999999999999996								
	37	39	0.00229	0.00818	0.0	204.21	245.06	306.32	0	0	1	-29.999999999999996	29.999999999999996								
	40	44	0.00125	0.1	0.0	50.74999999999999	60.9	91.35	1.01	0.0	1	-29.999999999999996	29.999999999999996								
	41	42	0.00549	0.01962	0.0	61.18	73.41	91.77	0	0	1	-29.999999999999996	29.999999999999996								
	47	49	0.0	0.00022	0.0	50.0	60.0	90.0	0	0	1	-29.999999999999996	29.999999999999996								
	48	53	0.00109	0.01324	0.0	505.79999999999995	606.96	910.44	0	0	1	-29.999999999999996	29.999999999999996								
	48	57	0.00107	0.07923	0.0	282.48	338.98	508.4700000000001	0.99933	0.0	1	-29.999999999999996	29.999999999999996								
	48	64	0.00084	0.01064	0.0	1033.31	1239.97	1859.9499999999998	1.01	0.0	1	-29.999999999999996	29.999999999999996								
	48	850	0.0001	0.01	0.0	506.7699999999999	608.13	760.16	0	0	1	-29.999999999999996	29.999999999999996								
	49	73	0.02804	0.1256	0.0	86.13	103.34999999999998	155.03	0	0	1	-29.999999999999996	29.999999999999996								
	49	77	0.01126	0.04725	0.0	95.54	114.65	171.98	0	0	1	-29.999999999999996	29.999999999999996								
	49	86	0.00538	0.02004	0.0	90.42	108.5	162.76	0	0	1	-29.999999999999996	29.999999999999996								
	49	91	0.00269	0.01294	0.0	121.83999999999999	146.21	182.77	0	0	1	-29.999999999999996	29.999999999999996								
	50	56	0.0	0.00022	0.0	50.0	60.0	90.0	0	0	1	-29.999999999999996	29.999999999999996								
	51	57	0.00071	0.00182	0.0	122.8	147.36	221.03000000000003	0	0	1	-29.999999999999996	29.999999999999996								
	51	67	0.01037	0.02151	0.0	121.48	145.78	218.66	0	0	1	-29.999999999999996	29.999999999999996								
	52	81	0.0	0.00022	0.0	50.0	60.0	90.0	0	0	1	-29.999999999999996	29.999999999999996								
	53	54	0.00165	0.07193	0.0	264.38	317.26	396.57	1.01	0.0	1	-29.999999999999996	29.999999999999996								
	53	89	0.00221	0.01891	0.0	714.68	857.62	1072.02	0	0	1	-29.999999999999996	29.999999999999996								
	53	659	0.0001	0.01	0.0	603.0	723.6	904.5	0	0	1	-29.999999999999996	29.999999999999996								
	54	57	0.02972	0.12473	0.0	62.34	74.81	93.51	0	0	1	-29.999999999999996	29.999999999999996								
	54	57	0.03336	0.11005	0.0	69.51	83.42	104.27	0	0	1	-29.999999999999996	29.999999999999996								
	54	59	0.02722	0.11886	0.0	81.09	97.31	121.63999999999999	0	0	1	-29.999999999999996	29.999999999999996								
	54	80	0.00278	0.01078	0.0	58.11999999999999	69.75	87.18	0	0	1	-29.999999999999996	29.999999999999996								
	54	95	0.00244	0.00946	0.0	20.17	24.21	36.31	0	0	1	-29.999999999999996	29.999999999999996								
	54	95	0.00215	0.00965	0.0	19.93	23.92	35.88	0	0	1	-29.999999999999996	29.999999999999996								
	54	95	0.00244	0.00935	0.0	20.39	24.47	36.71	0	0	1	-29.999999999999996	29.999999999999996								
	55	83	0.00424	0.01913	0.0	22.49	26.99	40.49	0	0	1	-29.999999999999996	29.999999999999996								
	56	61	0.00565	0.02021	0.0	110.13999999999999	132.17	198.26	0	0	1	-29.999999999999996	29.999999999999996								
	56	78	0.02361	0.05307	0.0	50.0	60.0	90.0	0	0	1	-29.999999999999996	29.999999999999996								
	56	81	0.00561	0.02087	0.0	50.0	60.0	90.0	0	0	1	-29.999999999999996	29.999999999999996								
	56	86	0.04257	0.11516	0.0	54.54	65.44	81.8	0	0	1	-29.999999999999996	29.999999999999996								
	57	66	0.00094	0.00424	0.0	72.25	86.7	130.05	0	0	1	-29.999999999999996	29.999999999999996								
	57	72	0.03196	0.14997	0.0	97.55	117.06	146.32	0	0	1	-29.999999999999996	29.999999999999996								
	57	73	0.01907	0.07388	0.0	59.12	70.94	106.41000000000001	0	0	1	-29.999999999999996	29.999999999999996								
	57	79	0.01882	0.07227	0.0	50.0	60.0	90.0	0	0	1	-29.999999999999996	29.999999999999996								
	57	87	0.00201	0.00665	0.0	50.0	60.0	90.0	0	0	1	-29.999999999999996	29.999999999999996								
	57	88	0.00198	0.0068	0.0	50.0	60.0	90.0	0	0	1	-29.999999999999996	29.999999999999996								
	57	93	0.01804	0.05949	0.0	50.0	60.0	90.0	0	0	1	-29.999999999999996	29.999999999999996								
	57	93	0.01771	0.06081	0.0	50.0	60.0	90.0	0	0	1	-29.999999999999996	29.999999999999996								
	57	94	0.02313	0.07629	0.0	133.15	159.78	239.67000000000002	0	0	1	-29.999999999999996	29.999999999999996								
	58	90	0.0	0.00022	0.0	50.0	60.0	90.0	0	0	1	-29.999999999999996	29.999999999999996								
	59	68	0.00709	0.01794	0.0	92.51	111.01999999999998	138.77	0	0	1	-29.999999999999996	29.999999999999996								
	59	69	0.02085	0.05283	0.0	152.62	183.14	228.92999999999998	0	0	1	-29.999999999999996	29.999999999999996								
	59	70	0.0	0.00022	0.0	50.0	60.0	90.0	0	0	1	-29.999999999999996	29.999999999999996								
	59	83	0.01054	0.04794	0.0	66.72	80.06	120.09	0	0	1	-29.999999999999996	29.999999999999996								
	60	79	0.0061	0.02982	0.0	50.0	60.0	90.0	0	0	1	-29.999999999999996	29.999999999999996								
	60	93	0.00096	0.00338	0.0	50.0	60.0	90.0	0	0	1	-29.999999999999996	29.999999999999996								
	61	67	0.03782	0.07534	0.0	113.66000000000001	136.39	204.58000000000004	0	0	1	-29.999999999999996	29.999999999999996								
	62	75	0.0	0.00022	0.0	50.0	60.0	90.0	0	0	1	-29.999999999999996	29.999999999999996								
	63	85	0.01987	0.04289	0.0	57.74	69.28	86.6	0	0	1	-29.999999999999996	29.999999999999996								
	63	90	0.00076	0.00198	0.0	57.09000000000001	68.51	85.64	0	0	1	-29.999999999999996	29.999999999999996								
	64	803	0.0001	0.01	0.0	551.73	662.08	827.6	0	0	1	-29.999999999999996	29.999999999999996								
	66	65	0.00125	0.1	0.0	24.11	28.93	43.39	1.01	0.0	1	-29.999999999999996	29.999999999999996								
	66	82	0.00125	0.1	0.0	24.26	29.12	43.67	1.01	0.0	1	-29.999999999999996	29.999999999999996								
	66	96	0.00125	0.1	0.0	24.26	29.12	43.67	1.01	0.0	1	-29.999999999999996	29.999999999999996								
	68	71	0.01061	0.00521	0.0	90.9	109.08	136.34	0	0	1	-29.999999999999996	29.999999999999996								
	69	2001	0.0001	0.01	0.0	164.83	197.8	247.23999999999998	0	0	1	-29.999999999999996	29.999999999999996								
	71	73	0.00191	0.00075	0.0	89.37	107.24000000000001	134.05	0	0	1	-29.999999999999996	29.999999999999996								
	72	81	0.01691	0.07039	0.0	92.07	110.48	138.1	0	0	1	-29.999999999999996	29.999999999999996								
	73	74	0.0	0.00028	0.0	50.0	60.0	90.0	0	0	1	-29.999999999999996	29.999999999999996								
	75	77	0.0001	0.00033	0.0	96.33	115.58999999999999	173.39	0	0	1	-29.999999999999996	29.999999999999996								
	75	94	8.0e-5	0.0004	0.0	133.09	159.71	239.56999999999996	0	0	1	-29.999999999999996	29.999999999999996								
	76	88	0.03915	0.088	0.0	42.11	50.54	63.17	0	0	1	-29.999999999999996	29.999999999999996								
	76	90	0.00075	0.00183	0.0	42.75	51.300000000000004	64.13	0	0	1	-29.999999999999996	29.999999999999996								
	79	93	0.00707	0.03316	0.0	50.0	60.0	90.0	0	0	1	-29.999999999999996	29.999999999999996								
	80	85	0.00026	0.00109	0.0	57.93000000000001	69.51	86.89	0	0	1	-29.999999999999996	29.999999999999996								
	83	95	0.01675	0.06488	0.0	74.53	89.43	111.79	0	0	1	-29.999999999999996	29.999999999999996								
	84	86	0.0	0.00028	0.0	50.0	60.0	90.0	0	0	1	-29.999999999999996	29.999999999999996								
	86	1573	0.0001	0.01	0.0	83.7	98.6	125.55000000000001	0	0	1	-29.999999999999996	29.999999999999996								
	87	92	0.00012	0.00032	0.0	50.0	60.0	90.0	0	0	1	-29.999999999999996	29.999999999999996								
	89	830	0.0001	0.01	0.0	501.58	601.89	752.37	0	0	1	-29.999999999999996	29.999999999999996								
	91	1576	0.0001	0.01	0.0	83.7	98.6	125.55000000000001	0	0	1	-29.999999999999996	29.999999999999996								
	97	102	0.00427	0.01643	0.0	172.47	206.95999999999998	258.7	0	0	1	-29.999999999999996	29.999999999999996								
	97	105	0.00232	0.00928	0.0	165.29	198.35	247.93000000000004	0	0	1	-29.999999999999996	29.999999999999996								
	98	109	0.00944	0.04427	0.0	223.85999999999999	268.64	335.79	0	0	1	-29.999999999999996	29.999999999999996								
	98	113	0.0154	0.00602	0.0	234.46000000000004	281.36	351.7	0	0	1	-29.999999999999996	29.999999999999996								
	99	112	0.0	0.00028	0.0	98.42	118.11	147.63	0	0	1	-29.999999999999996	29.999999999999996								
	99	119	0.00885	0.02096	0.0	99.11	118.94	148.67	0	0	1	-29.999999999999996	29.999999999999996								
	100	106	0.00959	0.02332	0.0	213.42	256.1	320.13	0	0	1	-29.999999999999996	29.999999999999996								
	100	125	0.0	0.00022	0.0	147.9	177.48	221.85000000000002	0	0	1	-29.999999999999996	29.999999999999996								
	101	114	0.00765	0.01963	0.0	135.51	162.62	203.27	0	0	1	-29.999999999999996	29.999999999999996								
	101	125	0.0	0.00022	0.0	102.05	122.46	183.68	0	0	1	-29.999999999999996	29.999999999999996								
	102	104	0.00749	0.03376	0.0	182.24	218.69	273.37	0	0	1	-29.999999999999996	29.999999999999996								
	103	121	0.0	0.00022	0.0	196.08	235.3	294.13	0	0	1	-29.999999999999996	29.999999999999996								
	103	122	0.0052	0.0139	0.0	207.38	248.85000000000002	311.07	0	0	1	-29.999999999999996	29.999999999999996								
	104	115	0.01632	0.05787	0.0	215.57	258.69	323.36	0	0	1	-29.999999999999996	29.999999999999996								
	105	572	0.0001	0.01	0.0	122.68999999999998	147.23	184.04	0	0	1	-29.999999999999996	29.999999999999996								
	106	116	0.0	0.00022	0.0	168.91	202.69999999999996	304.04	0	0	1	-29.999999999999996	29.999999999999996								
	107	114	0.0	0.00022	0.0	133.55	160.26	200.33000000000004	0	0	1	-29.999999999999996	29.999999999999996								
	107	119	0.0	0.00022	0.0	99.05	118.86000000000001	148.57	0	0	1	-29.999999999999996	29.999999999999996								
	108	117	0.01019	0.02833	0.0	131.21	157.46	196.82	0	0	1	-29.999999999999996	29.999999999999996								
	108	125	0.0	0.00022	0.0	141.32	169.58	211.97999999999996	0	0	1	-29.999999999999996	29.999999999999996								
	109	111	0.0	0.00022	0.0	228.24	273.89	342.36	0	0	1	-29.999999999999996	29.999999999999996								
	110	112	0.0	0.00022	0.0	83.23	99.87	124.83999999999999	0	0	1	-29.999999999999996	29.999999999999996								
	110	123	0.0034	0.00872	0.0	83.16	99.8	124.73999999999998	0	0	1	-29.999999999999996	29.999999999999996								
	111	124	0.00654	0.0272	0.0	230.87999999999997	277.05	346.31	0	0	1	-29.999999999999996	29.999999999999996								
	113	115	0.0	0.00022	0.0	240.45000000000002	288.54	360.67	0	0	1	-29.999999999999996	29.999999999999996								
	116	118	0.0	0.00022	0.0	168.89	202.66000000000003	304.0	0	0	1	-29.999999999999996	29.999999999999996								
	117	120	0.0	0.00022	0.0	132.96	159.55	199.44	0	0	1	-29.999999999999996	29.999999999999996								
	118	126	0.00612	0.01467	0.0	187.82	225.38	338.07	0	0	1	-29.999999999999996	29.999999999999996								
	120	123	0.0	0.00022	0.0	82.97	99.56	124.44999999999999	0	0	1	-29.999999999999996	29.999999999999996								
	121	125	0.0	0.00022	0.0	181.57	217.88	272.36	0	0	1	-29.999999999999996	29.999999999999996								
	122	124	0.00315	0.00128	0.0	227.25999999999996	272.71	340.89	0	0	1	-29.999999999999996	29.999999999999996								
	126	664	0.0001	0.01	0.0	146.7	176.04	220.04999999999998	0	0	1	-29.999999999999996	29.999999999999996								
	142	127	0.00125	0.1	0.0	50.0	60.0	90.0	0.99351	0.0	1	-29.999999999999996	29.999999999999996								
	128	136	0.00125	0.1	0.0	44.87	53.839999999999996	80.77	1.00356	0.0	1	-29.999999999999996	29.999999999999996								
	128	145	0.00154	0.01634	0.0	154.77	185.72	278.59	0	0	1	-29.999999999999996	29.999999999999996								
	128	145	0.00157	0.01604	0.0	157.61	189.13	283.7	0	0	1	-29.999999999999996	29.999999999999996								
	128	146	0.00068	0.0089	0.0	848.39	1018.0699999999999	1272.59	0	0	1	-29.999999999999996	29.999999999999996								
	128	147	0.00072	0.03809	0.0	306.15	367.38	459.22	1.01	0.0	1	-29.999999999999996	29.999999999999996								
	128	150	0.00194	0.02225	0.0	287.77	345.33	431.66	0	0	1	-29.999999999999996	29.999999999999996								
	128	181	0.00107	0.00871	0.0	165.12	198.15	247.67999999999998	0	0	1	-29.999999999999996	29.999999999999996								
	128	196	0.00125	0.1	0.0	50.0	60.0	90.0	0.99782	0.0	1	-29.999999999999996	29.999999999999996								
	128	197	0.00125	0.1	0.0	50.0	60.0	90.0	0.99782	0.0	1	-29.999999999999996	29.999999999999996								
	128	198	0.00125	0.1	0.0	50.0	60.0	90.0	0.99782	0.0	1	-29.999999999999996	29.999999999999996								
	128	199	0.00125	0.1	0.0	50.0	60.0	90.0	0.99782	0.0	1	-29.999999999999996	29.999999999999996								
	128	989	0.0001	0.01	0.0	516.88	620.26	775.32	0	0	1	-29.999999999999996	29.999999999999996								
	138	129	0.00212	0.08472	0.0	114.62	137.54	206.31	1.00004	0.0	1	-29.999999999999996	29.999999999999996								
	138	130	0.00212	0.08472	0.0	114.62	137.54	206.31	1.00004	0.0	1	-29.999999999999996	29.999999999999996								
	138	131	0.00212	0.08472	0.0	114.62	137.54	206.31	1.00004	0.0	1	-29.999999999999996	29.999999999999996								
	138	132	0.00212	0.08472	0.0	114.62	137.54	206.31	1.00004	0.0	1	-29.999999999999996	29.999999999999996								
	138	133	0.00212	0.08472	0.0	114.62	137.54	206.31	1.00004	0.0	1	-29.999999999999996	29.999999999999996								
	138	134	0.00212	0.08472	0.0	114.62	137.54	206.31	1.00004	0.0	1	-29.999999999999996	29.999999999999996								
	135	141	0.00019	0.02119	0.0	366.95	440.34	660.52	0.99168	0.0	1	-29.999999999999996	29.999999999999996								
	135	141	0.00019	0.02079	0.0	368.36	442.03000000000003	663.05	1.00007	0.0	1	-29.999999999999996	29.999999999999996								
	135	176	0.00053	0.02122	0.0	421.77	506.12000000000006	759.19	1.00328	0.0	1	-29.999999999999996	29.999999999999996								
	135	187	0.00053	0.02122	0.0	421.77	506.12000000000006	759.19	1.00328	0.0	1	-29.999999999999996	29.999999999999996								
	135	188	0.00053	0.02122	0.0	421.77	506.12000000000006	759.19	1.00328	0.0	1	-29.999999999999996	29.999999999999996								
	135	189	0.00053	0.02122	0.0	421.77	506.12000000000006	759.19	1.00328	0.0	1	-29.999999999999996	29.999999999999996								
	135	194	0.00013	0.00154	0.0	641.9	770.28	962.85	0	0	1	-29.999999999999996	29.999999999999996								
	135	194	0.00012	0.00157	0.0	641.35	769.62	962.0200000000001	0	0	1	-29.999999999999996	29.999999999999996								
	137	144	0.0008	0.00784	0.0	1034.07	1240.89	1551.11	0	0	1	-29.999999999999996	29.999999999999996								
	137	173	0.00066	0.00602	0.0	1061.08	1273.3	1591.62	0	0	1	-29.999999999999996	29.999999999999996								
	138	152	0.00021	0.00288	0.0	461.7900000000001	554.15	692.69	0	0	1	-29.999999999999996	29.999999999999996								
	138	152	0.0002	0.00294	0.0	452.52	543.03	678.78	0	0	1	-29.999999999999996	29.999999999999996								
	138	173	0.00065	0.00764	0.0	690.94	829.13	1243.69	0	0	1	-29.999999999999996	29.999999999999996								
	138	173	0.00064	0.0078	0.0	676.94	812.32	1218.48	0	0	1	-29.999999999999996	29.999999999999996								
	138	179	0.00212	0.08472	0.0	116.38999999999999	139.66	209.50000000000003	1.00004	0.0	1	-29.999999999999996	29.999999999999996								
	138	180	0.00212	0.08472	0.0	116.38999999999999	139.66	209.50000000000003	1.00004	0.0	1	-29.999999999999996	29.999999999999996								
	139	141	0.00339	0.02053	0.0	502.82	603.39	754.24	0	0	1	-29.999999999999996	29.999999999999996								
	139	154	0.00169	0.00933	0.0	301.05	361.26	541.89	0	0	1	-29.999999999999996	29.999999999999996								
	155	139	0.00065	0.03746	0.0	303.37	364.05	546.07	0.99408	0.0	1	-29.999999999999996	29.999999999999996								
	155	139	0.00052	0.0273	0.0	421.5199999999999	505.82000000000005	758.73	0.99	0.0	1	-29.999999999999996	29.999999999999996								
	139	186	0.00105	0.00797	0.0	558.71	670.46	838.07	0	0	1	-29.999999999999996	29.999999999999996								
	139	205	0.00119	0.00875	0.0	587.56	705.07	881.3399999999999	0	0	1	-29.999999999999996	29.999999999999996								
	140	155	0.00051	0.00549	0.0	955.8	1146.96	1720.44	0	0	1	-29.999999999999996	29.999999999999996								
	140	173	0.00061	0.00582	0.0	470.51	564.61	705.77	0	0	1	-29.999999999999996	29.999999999999996								
	140	201	0.00023	0.02191	0.0	452.53	543.04	814.56	0.99	0.0	1	-29.999999999999996	29.999999999999996								
	141	151	0.00101	0.00719	0.0	210.09000000000003	252.1	378.15	0	0	1	-29.999999999999996	29.999999999999996								
	142	144	0.0008	0.01072	0.0	809.0	970.7900000000001	1456.19	0	0	1	-29.999999999999996	29.999999999999996								
...
];

%%-----  OPF Data  -----%%
%% cost data
%    1    startup    shutdown    n    x1    y1    ...    xn    yn
%    2    startup    shutdown    n    c(n-1)    ...    c0
mpc.gencost = [
	2	0.0	0.0	2	49.209653	0.0
	2	0.0	0.0	2	34.006675	0.0
	2	0.0	0.0	2	25.106965000000002	0.0
	2	0.0	0.0	2	58.206079	0.0
	2	0.0	0.0	2	9.893291	0.0
	2	0.0	0.0	2	33.11428	0.0
	2	0.0	0.0	2	35.257322	0.0
	2	0.0	0.0	2	40.297111	0.0
	2	0.0	0.0	2	21.658658999999997	0.0
	2	0.0	0.0	2	34.442063	0.0
	2	0.0	0.0	2	106.974537	0.0
	2	0.0	0.0	2	16.12127	0.0
	2	0.0	0.0	2	6.211727	0.0
	2	0.0	0.0	2	37.825795	0.0
	2	0.0	0.0	2	6.721011	0.0
	2	0.0	0.0	2	23.763503	0.0
	2	0.0	0.0	2	32.182059	0.0
	2	0.0	0.0	2	28.431035	0.0
	2	0.0	0.0	2	29.655946	0.0
	2	0.0	0.0	2	21.564734000000005	0.0
	2	0.0	0.0	2	55.619684	0.0
	2	0.0	0.0	2	21.245865	0.0
	2	0.0	0.0	2	49.615255	0.0
	2	0.0	0.0	2	25.964519	0.0
	2	0.0	0.0	2	15.141744	0.0
	2	0.0	0.0	2	39.782771	0.0
	2	0.0	0.0	2	23.267202	0.0
	2	0.0	0.0	2	32.755385	0.0
	2	0.0	0.0	2	38.664369	0.0
	2	0.0	0.0	2	30.800511000000004	0.0
	2	0.0	0.0	2	36.456662	0.0
	2	0.0	0.0	2	33.061085	0.0
	2	0.0	0.0	2	41.72406800000001	0.0
	2	0.0	0.0	2	42.559991000000004	0.0
	2	0.0	0.0	2	36.769437	0.0
	2	0.0	0.0	2	31.571515	0.0
	2	0.0	0.0	2	20.002982	0.0
	2	0.0	0.0	2	24.092809	0.0
	2	0.0	0.0	2	36.83336	0.0
	2	0.0	0.0	2	30.147327	0.0
	2	0.0	0.0	2	33.410756	0.0
	2	0.0	0.0	2	36.105149	0.0
	2	0.0	0.0	2	27.887633	0.0
	2	0.0	0.0	2	42.81106	0.0
	2	0.0	0.0	2	30.887733000000004	0.0
	2	0.0	0.0	2	27.64235	0.0
	2	0.0	0.0	2	18.299407	0.0
	2	0.0	0.0	2	22.81428	0.0
	2	0.0	0.0	2	36.112918	0.0
	2	0.0	0.0	2	25.274362	0.0
	2	0.0	0.0	2	23.390264	0.0
	2	0.0	0.0	2	36.433389	0.0
	2	0.0	0.0	2	35.597394	0.0
	2	0.0	0.0	2	127.17240900000002	0.0
	2	0.0	0.0	2	18.62204	0.0
	2	0.0	0.0	2	29.688407	0.0
	2	0.0	0.0	2	27.030293	0.0
	2	0.0	0.0	2	36.074926	0.0
	2	0.0	0.0	2	31.049528000000002	0.0
	2	0.0	0.0	2	40.352684	0.0
	2	0.0	0.0	2	22.113213	0.0
	2	0.0	0.0	2	41.474272	0.0
	2	0.0	0.0	2	18.68665	0.0
	2	0.0	0.0	2	37.654512	0.0
	2	0.0	0.0	2	44.694347	0.0
	2	0.0	0.0	2	50.574656	0.0
	2	0.0	0.0	2	26.589708	0.0
	2	0.0	0.0	2	123.137974	0.0
	2	0.0	0.0	2	30.95793	0.0
	2	0.0	0.0	2	54.576482	0.0
	2	0.0	0.0	2	47.210091000000006	0.0
	2	0.0	0.0	2	24.59326	0.0
	2	0.0	0.0	2	42.926155	0.0
	2	0.0	0.0	2	36.093637	0.0
	2	0.0	0.0	2	34.335218	0.0
	2	0.0	0.0	2	37.01325	0.0
	2	0.0	0.0	2	33.808341	0.0
	2	0.0	0.0	2	41.27601800000001	0.0
	2	0.0	0.0	2	35.799907	0.0
	2	0.0	0.0	2	22.946272	0.0
	2	0.0	0.0	2	21.111529	0.0
	2	0.0	0.0	2	49.840539	0.0
	2	0.0	0.0	2	40.047328	0.0
	2	0.0	0.0	2	40.200939	0.0
	2	0.0	0.0	2	46.185017	0.0
	2	0.0	0.0	2	17.173776	0.0
	2	0.0	0.0	2	102.169631	0.0
	2	0.0	0.0	2	25.776803	0.0
	2	0.0	0.0	2	21.547974	0.0
	2	0.0	0.0	2	30.728091	0.0
	2	0.0	0.0	2	36.335226	0.0
	2	0.0	0.0	2	35.818864	0.0
	2	0.0	0.0	2	38.054527	0.0
	2	0.0	0.0	2	27.151308	0.0
	2	0.0	0.0	2	115.321539	0.0
	2	0.0	0.0	2	40.606135	0.0
	2	0.0	0.0	2	109.59665100000001	0.0
	2	0.0	0.0	2	45.46680500000001	0.0
	2	0.0	0.0	2	27.408645000000003	0.0
	2	0.0	0.0	2	23.664365	0.0
	2	0.0	0.0	2	31.685725	0.0
	2	0.0	0.0	2	31.046446000000003	0.0
	2	0.0	0.0	2	43.133229	0.0
	2	0.0	0.0	2	34.074046	0.0
	2	0.0	0.0	2	36.965565	0.0
	2	0.0	0.0	2	28.653721	0.0
	2	0.0	0.0	2	36.061621	0.0
	2	0.0	0.0	2	113.738203	0.0
	2	0.0	0.0	2	110.459544	0.0
	2	0.0	0.0	2	52.896797	0.0
	2	0.0	0.0	2	45.969632000000004	0.0
	2	0.0	0.0	2	40.423403	0.0
	2	0.0	0.0	2	32.205927	0.0
	2	0.0	0.0	2	48.363295	0.0
	2	0.0	0.0	2	10.33173	0.0
	2	0.0	0.0	2	42.207857	0.0
	2	0.0	0.0	2	43.528306	0.0
	2	0.0	0.0	2	20.831006	0.0
	2	0.0	0.0	2	43.29708500000001	0.0
	2	0.0	0.0	2	24.932997	0.0
	2	0.0	0.0	2	29.943262	0.0
	2	0.0	0.0	2	111.273464	0.0
	2	0.0	0.0	2	115.893786	0.0
	2	0.0	0.0	2	122.245743	0.0
	2	0.0	0.0	2	30.444911	0.0
	2	0.0	0.0	2	28.400393	0.0
	2	0.0	0.0	2	48.47892	0.0
	2	0.0	0.0	2	38.391035	0.0
	2	0.0	0.0	2	38.530634	0.0
	2	0.0	0.0	2	33.950482	0.0
	2	0.0	0.0	2	36.916502	0.0
	2	0.0	0.0	2	49.999603	0.0
	2	0.0	0.0	2	109.61547300000001	0.0
	2	0.0	0.0	2	29.31921	0.0
	2	0.0	0.0	2	51.496241	0.0
	2	0.0	0.0	2	32.858434	0.0
	2	0.0	0.0	2	27.988833	0.0
	2	0.0	0.0	2	53.621839	0.0
	2	0.0	0.0	2	29.943437	0.0
	2	0.0	0.0	2	37.282005	0.0
	2	0.0	0.0	2	33.149925	0.0
	2	0.0	0.0	2	9.550127	0.0
	2	0.0	0.0	2	51.520651	0.0
	2	0.0	0.0	2	31.285102	0.0
	2	0.0	0.0	2	40.238629	0.0
	2	0.0	0.0	2	37.058027	0.0
	2	0.0	0.0	2	25.550431	0.0
	2	0.0	0.0	2	42.819949	0.0
	2	0.0	0.0	2	49.936441	0.0
	2	0.0	0.0	2	123.00526	0.0
	2	0.0	0.0	2	27.554622	0.0
	2	0.0	0.0	2	49.702657	0.0
	2	0.0	0.0	2	38.120358	0.0
	2	0.0	0.0	2	28.348056000000003	0.0
	2	0.0	0.0	2	16.674337	0.0
	2	0.0	0.0	2	34.566358	0.0
	2	0.0	0.0	2	32.917035	0.0
	2	0.0	0.0	2	32.866061	0.0
	2	0.0	0.0	2	29.628927	0.0
	2	0.0	0.0	2	52.38753	0.0
	2	0.0	0.0	2	18.461037	0.0
	2	0.0	0.0	2	11.180393000000002	0.0
	2	0.0	0.0	2	24.316194	0.0
	2	0.0	0.0	2	27.890043000000002	0.0
	2	0.0	0.0	2	42.831659	0.0
	2	0.0	0.0	2	36.344624	0.0
	2	0.0	0.0	2	49.968699	0.0
	2	0.0	0.0	2	55.901992	0.0
	2	0.0	0.0	2	29.703926000000003	0.0
	2	0.0	0.0	2	23.887364	0.0
	2	0.0	0.0	2	14.12718	0.0
	2	0.0	0.0	2	16.539684	0.0
	2	0.0	0.0	2	52.20665	0.0
	2	0.0	0.0	2	21.568533	0.0
	2	0.0	0.0	2	23.031481	0.0
	2	0.0	0.0	2	45.224593	0.0
	2	0.0	0.0	2	28.776922	0.0
	2	0.0	0.0	2	59.20689	0.0
	2	0.0	0.0	2	23.999807	0.0
	2	0.0	0.0	2	117.24199800000001	0.0
	2	0.0	0.0	2	35.782588	0.0
	2	0.0	0.0	2	25.037674	0.0
	2	0.0	0.0	2	33.660168	0.0
	2	0.0	0.0	2	30.843352	0.0
	2	0.0	0.0	2	30.205708	0.0
	2	0.0	0.0	2	35.327443	0.0
	2	0.0	0.0	2	38.419727	0.0
	2	0.0	0.0	2	52.278863	0.0
	2	0.0	0.0	2	23.831168	0.0
	2	0.0	0.0	2	35.55043	0.0
	2	0.0	0.0	2	12.053451	0.0
	2	0.0	0.0	2	37.389032	0.0
...